geometry optimzed in LAMMPS
_audit_creation_date              2020-11-30 
_audit_creation_method            'lammps2cif' 
_symmetry_space_group_name_H-M    'P1' 
_symmetry_Int_Tables_number       1 
_symmetry_cell_setting            triclinic 
loop_ 
_symmetry_equiv_pos_as_xyz 
  x,y,z 
_cell_length_a                    33.93111476 
_cell_length_b                    34.060869266750956 
_cell_length_c                    28.426999292702295 
_cell_angle_alpha                 90.53002150527092 
_cell_angle_beta                  89.64456677874165 
_cell_angle_gamma                 120.45670348548651 
loop_ 
_atom_site_label 
_atom_site_type_symbol 
_atom_site_fract_x 
_atom_site_fract_y 
_atom_site_fract_z 
_atom_site_charge 
O1          O  0.56038172  0.71743470  0.34469870    -0.82300
C2          C  0.52996622  0.59448418  0.47834814     0.97100
O3          O  0.55690650  0.61039199  0.44359060    -0.71400
O4          O  0.58168379  0.64603675  0.35939547    -0.75000
Al5        Al  0.58445387  0.66974564  0.42105929     1.49000
C6          C  0.54922119  0.62228042  0.33202502     0.92300
O7          O  0.44429069  0.61968254  0.38459954    -0.81200
O8          O  0.49060130  0.71130476  0.46510884    -0.74800
Al9        Al  0.50420193  0.66779340  0.36851873     1.90100
O10         O  0.44610681  0.61899057  0.46132089    -0.73800
O11         O  0.55902320  0.71230636  0.50911101    -0.73700
O12         O  0.51471661  0.61708538  0.49979141    -0.79300
O13         O  0.60712008  0.69385488  0.48217492    -0.77600
O14         O  0.53065381  0.66760013  0.42284067    -1.13700
O15         O  0.61278605  0.72915030  0.39833671    -0.72900
C16         C  0.59895926  0.74266800  0.36426034     0.97800
C17         C  0.42445491  0.60420153  0.42343439     0.94200
Al18       Al  0.50513464  0.66523128  0.47876667     1.55600
O19         O  0.51221793  0.62187030  0.33723181    -0.77500
C20         C  0.59663304  0.71386551  0.51252161     0.98400
C21         C  0.48338993  0.72594721  0.42736339     0.93300
O22         O  0.48965445  0.71238499  0.38818285    -0.82800
O23         O  0.71522707  0.56014697  0.15524845    -0.82300
C24         C  0.58293816  0.52544890  0.02258436     0.97100
O25         O  0.60618073  0.56315680  0.04353289    -0.71400
O26         O  0.60853358  0.56819677  0.13414170    -0.75000
Al27       Al  0.65448346  0.58499992  0.08719478     1.49000
C28         C  0.60701289  0.55295034  0.17449569     0.92300
O29         O  0.60117270  0.45420779  0.13276990    -0.81200
O30         O  0.70984271  0.50601059  0.04700415    -0.74800
Al31       Al  0.65845031  0.50900177  0.14268313     1.90100
O32         O  0.61802733  0.44389882  0.06057005    -0.73800
O33         O  0.68543932  0.55585466  0.99523333    -0.73700
O34         O  0.59685938  0.49758914  0.01831707    -0.79300
O35         O  0.69995105  0.61357259  0.03987794    -0.77600
O36         O  0.65518557  0.53281801  0.08807803    -1.13700
O37         O  0.70306428  0.61436942  0.13073028    -0.72900
C38         C  0.72862110  0.60167102  0.14895283     0.97800
C39         C  0.59447083  0.42834990  0.09764498     0.94200
Al40       Al  0.65295634  0.50361087  0.03477118     1.55600
O41         O  0.62783485  0.53176190  0.18191079    -0.77500
C42         C  0.70386586  0.59824553  0.00091391     0.98400
C43         C  0.71598334  0.48784682  0.08277377     0.93300
O44         O  0.69178111  0.48120445  0.11911775    -0.82800
O45         O  0.80223458  0.75823631  0.67841014    -0.82300
C46         C  0.71379267  0.79340268  0.81404363     0.97100
O47         O  0.70251836  0.76623350  0.77954269    -0.71400
O48         O  0.71299547  0.74178672  0.69530815    -0.75000
Al49       Al  0.73330851  0.73811202  0.75687212     1.49000
C50         C  0.72344713  0.77459893  0.66823577     0.92300
O51         O  0.83199822  0.87706699  0.71866721    -0.81200
O52         O  0.87111722  0.83465522  0.79848537    -0.74800
Al53       Al  0.81398337  0.81556675  0.70315573     1.90100
O54         O  0.82086980  0.87650355  0.79435942    -0.73800
O55         O  0.80350767  0.76543610  0.84341300    -0.73700
O56         O  0.75158782  0.80785378  0.83526616    -0.79300
O57         O  0.73564809  0.71700233  0.81801642    -0.77600
O58         O  0.78625852  0.79127659  0.75777145    -1.13700
O59         O  0.76263879  0.70814981  0.73388496    -0.72900
C60         C  0.78810167  0.72000628  0.69794574     0.97800
C61         C  0.83312048  0.89773233  0.75609916     0.94200
Al62       Al  0.80960882  0.81846645  0.81299652     1.55600
O63         O  0.76090016  0.81111892  0.67392237    -0.77500
C64         C  0.76705556  0.72774042  0.84729147     0.98400
C65         C  0.89209071  0.83578265  0.76111330     0.93300
O66         O  0.87141661  0.82482504  0.72231112    -0.82800
O67         O  0.28216492  0.50464899  0.87340986    -0.82300
C68         C  0.40018438  0.46894594  0.96957605     0.97100
O69         O  0.37795426  0.48605840  0.98823251    -0.71400
O70         O  0.37261260  0.55148769  0.94686606    -0.75000
Al71       Al  0.32793080  0.49215095  0.96606302     1.49000
C72         C  0.38909271  0.57115914  0.90844059     0.92300
O73         O  0.37257758  0.48055592  0.82621938    -0.81200
O74         O  0.26696396  0.38267734  0.89001341    -0.74800
Al75       Al  0.32664429  0.48934331  0.85591768     1.90100
O76         O  0.34982097  0.41273397  0.85137070    -0.73800
O77         O  0.30282353  0.39128552  0.97303234    -0.73700
O78         O  0.38523278  0.44119546  0.93535703    -0.79300
O79         O  0.28238041  0.43827489  0.99831191    -0.77600
O80         O  0.32705321  0.46526396  0.91149782    -1.13700
O81         O  0.27928537  0.50302091  0.95020213    -0.72900
C82         C  0.26582221  0.50973005  0.91124647     0.97800
C83         C  0.37293819  0.44400977  0.82299403     0.94200
Al84       Al  0.32626272  0.41230762  0.91223687     1.55600
O85         O  0.37514346  0.54932642  0.87022726    -0.77500
C86         C  0.28173862  0.40122682  0.00236864     0.98400
C87         C  0.25206435  0.39511779  0.85612182     0.93300
O88         O  0.27651404  0.43225190  0.83416864    -0.82800
O89         O  0.48942030  0.28351135  0.61387678    -0.82300
C90         C  0.45608585  0.40670991  0.52473423     0.97100
O91         O  0.46867121  0.38244189  0.50210089    -0.71400
O92         O  0.53684802  0.38117559  0.54198704    -0.75000
Al93       Al  0.47840557  0.33440460  0.52364020     1.49000
C94         C  0.55879133  0.39368381  0.57990805     0.92300
O95         O  0.47099446  0.37650650  0.66452203    -0.81200
O96         O  0.36900011  0.27154391  0.60079971    -0.74800
Al97       Al  0.47723167  0.32941838  0.63351992     1.90100
O98         O  0.40169100  0.35337289  0.64235037    -0.73800
O99         O  0.37834338  0.30946113  0.51810146    -0.73700
O100        O  0.42964968  0.39158867  0.55989114    -0.79300
O101        O  0.42396833  0.28656721  0.49394203    -0.77600
O102        O  0.45242272  0.33166336  0.57912246    -1.13700
O103        O  0.49409551  0.28896990  0.53731957    -0.72900
C104        C  0.49838385  0.27197487  0.57492167     0.97800
C105        C  0.43439459  0.37693661  0.66947157     0.94200
Al106      Al  0.39961020  0.33147476  0.58017383     1.55600
O107        O  0.53880366  0.37629395  0.61838732    -0.77500
C108        C  0.38718876  0.28674149  0.48948886     0.98400
C109        C  0.38076620  0.25652889  0.63522149     0.93300
O110        O  0.41917724  0.28039036  0.65588744    -0.82800
O111        O  0.16159439  0.12119613  0.20457086    -0.82300
C112        C  0.19152335  0.27461918  0.29997900     0.97100
O113        O  0.17733468  0.23668702  0.32051761    -0.71400
O114        O  0.11067490  0.16708215  0.27725991    -0.75000
Al115      Al  0.16895630  0.17983000  0.29714654     1.49000
C116        C  0.09058184  0.15962691  0.23834781     0.92300
O117        O  0.18157517  0.23341166  0.15772453    -0.81200
O118        O  0.28061501  0.22917883  0.22411985    -0.74800
Al119      Al  0.17417089  0.17947809  0.18706751     1.90100
O120        O  0.24995016  0.27987724  0.18285140    -0.73800
O121        O  0.26911177  0.25607651  0.30717576    -0.73700
O122        O  0.21913806  0.28743715  0.26569505    -0.79300
O123        O  0.22209318  0.18683763  0.32868466    -0.77600
O124        O  0.19692635  0.20515948  0.24297000    -1.13700
O125        O  0.15526777  0.11948262  0.28117216    -0.72900
C126        C  0.15287131  0.09976261  0.24255286     0.97800
C127        C  0.21859631  0.27050235  0.15392758     0.94200
Al128      Al  0.24974320  0.25818641  0.24472936     1.55600
O129        O  0.11232928  0.16418263  0.20054897    -0.77500
C130        C  0.25889133  0.22377861  0.33473840     0.98400
C131        C  0.26949619  0.20240237  0.18924130     0.93300
O132        O  0.23286989  0.18939080  0.16596176    -0.82800
O133        O  0.42280766  0.14493854  0.16792565    -0.82300
C134        C  0.46323904  0.05844486  0.03731025     0.97100
O135        O  0.43632334  0.04572493  0.07241744    -0.71400
O136        O  0.40317202  0.05498282  0.15393879    -0.75000
Al137      Al  0.40439800  0.07444211  0.09146666     1.49000
C138        C  0.43535519  0.06258043  0.18070733     0.92300
O139        O  0.54175725  0.16636774  0.13144192    -0.81200
O140        O  0.49203764  0.21174266  0.05213550    -0.74800
Al141      Al  0.48101756  0.15322101  0.14659674     1.90100
O142        O  0.54123052  0.16908030  0.05474479    -0.73800
O143        O  0.42577784  0.14163112  0.00625794    -0.73700
O144        O  0.47559124  0.09556402  0.01535686    -0.79300
O145        O  0.38473279  0.07218617  0.02885729    -0.77600
O146        O  0.45650124  0.12752742  0.09157012    -1.13700
O147        O  0.37390600  0.10459168  0.11018838    -0.72900
C148        C  0.38610516  0.13232352  0.14458326     0.97800
C149        C  0.56246588  0.17411669  0.09243723     0.94200
Al150      Al  0.48147648  0.15236037  0.03669809     1.55600
O151        O  0.47298485  0.09878112  0.17584483    -0.77500
C152        C  0.39180590  0.10250464  0.00000208     0.98400
C153        C  0.49908676  0.23245868  0.09107080     0.93300
O154        O  0.49528328  0.21205237  0.12896343    -0.82800
O155        O  0.22527333  0.04677154  0.67380219    -0.82300
C156        C  0.19354725  0.92877133  0.81179732     0.97100
O157        O  0.21931241  0.94136537  0.77584897    -0.71400
O158        O  0.24595139  0.97508791  0.69042231    -0.75000
Al159      Al  0.24903329  0.99966996  0.75109529     1.49000
C160        C  0.21348716  0.95184088  0.66321726     0.92300
O161        O  0.10982639  0.94954368  0.71789337    -0.81200
O162        O  0.16415274  0.05283801  0.79230764    -0.74800
Al163      Al  0.16910268  0.99756636  0.69905970     1.90100
O164        O  0.11307036  0.95999415  0.79399838    -0.73800
O165        O  0.23141154  0.05013633  0.83706702    -0.73700
O166        O  0.17975772  0.95350884  0.83164881    -0.79300
O167        O  0.27263851  0.02307012  0.81108361    -0.77600
O168        O  0.19684197  0.00037262  0.75304453    -1.13700
O169        O  0.27885264  0.05825089  0.72631474    -0.72900
C170        C  0.26511483  0.07119874  0.69151028     0.97800
C171        C  0.09046248  0.94020686  0.75767217     0.94200
Al172      Al  0.17427254  0.00387036  0.80886611     1.55600
O173        O  0.17641164  0.95089237  0.66916893    -0.77500
C174        C  0.26597468  0.04600483  0.84110082     0.98400
C175        C  0.15306905  0.06194573  0.75321012     0.93300
O176        O  0.15445738  0.04194991  0.71647178    -0.82800
O177        O  0.37574429  0.90564072  0.49476397    -0.82300
C178        C  0.24790549  0.86282176  0.36264662     0.97100
O179        O  0.26398344  0.89087886  0.39665938    -0.71400
O180        O  0.30438244  0.92358867  0.47845524    -0.75000
Al181      Al  0.32443694  0.92122952  0.41642743     1.49000
C182        C  0.28048855  0.89272120  0.50701515     0.92300
O183        O  0.27913324  0.78566699  0.46291349    -0.81200
O184        O  0.36773154  0.82631862  0.38069165    -0.74800
Al185      Al  0.32624092  0.84700865  0.47494158     1.90100
O186        O  0.27460066  0.78161429  0.38623737    -0.73800
O187        O  0.36749363  0.89237778  0.33294659    -0.73700
O188        O  0.27114421  0.84735564  0.34267883    -0.79300
O189        O  0.34486577  0.93892356  0.35410415    -0.77600
O190        O  0.32368373  0.86846035  0.41881537    -1.13700
O191        O  0.38496591  0.95188565  0.43547063    -0.72900
C192        C  0.40006819  0.94154668  0.47086397     0.97800
C193        C  0.26209835  0.76277754  0.42576974     0.94200
Al194      Al  0.32055548  0.83960536  0.36514279     1.55600
O195        O  0.27952063  0.85542107  0.50379993    -0.77500
C196        C  0.36794951  0.92914758  0.32730724     0.98400
C197        C  0.38431983  0.82373735  0.41948783     0.93300
O198        O  0.37167572  0.83333417  0.45743148    -0.82800
O199        O  0.49697406  0.79052566  0.86950577    -0.82300
C200        C  0.52791275  0.94341035  0.96960415     0.97100
O201        O  0.51507303  0.90544691  0.98944342    -0.71400
O202        O  0.44668934  0.83744041  0.94586254    -0.75000
Al203      Al  0.50506513  0.84864616  0.96326273     1.49000
C204        C  0.42547550  0.82838339  0.90743907     0.92300
O205        O  0.51283740  0.90241018  0.82524926    -0.81200
O206        O  0.61466322  0.90025192  0.88636946    -0.74800
Al207      Al  0.50752410  0.84871631  0.85324092     1.90100
O208        O  0.58146483  0.94975627  0.84936988    -0.73800
O209        O  0.60491461  0.92471011  0.97093944    -0.73700
O210        O  0.55364883  0.95639938  0.93384466    -0.79300
O211        O  0.55923550  0.85446477  0.99083539    -0.77600
O212        O  0.53141925  0.87448845  0.90875007    -1.13700
O213        O  0.48945937  0.78797547  0.94584796    -0.72900
C214        C  0.48731403  0.76847867  0.90715234     0.97800
C215        C  0.54929130  0.94011353  0.82155758     0.94200
Al216      Al  0.58389078  0.92794488  0.90990533     1.55600
O217        O  0.44602934  0.83175016  0.86913475    -0.77500
C218        C  0.59570701  0.89169021  0.99702891     0.98400
C219        C  0.60287766  0.87313283  0.85171825     0.93300
O220        O  0.56566188  0.86030965  0.82979602    -0.82800
O221        O  0.87089458  0.05135976  0.20748689    -0.82300
C222        C  0.71330926  0.92434342  0.29710941     0.97100
O223        O  0.75066862  0.94931011  0.31921666    -0.71400
O224        O  0.82120108  0.95267641  0.27848829    -0.75000
Al225      Al  0.80908852  0.99840241  0.29771195     1.49000
C226        C  0.83119181  0.94131352  0.24002201     0.92300
O227        O  0.75938854  0.95698704  0.15698593    -0.81200
O228        O  0.76129945  0.05942981  0.22443379    -0.74800
Al229      Al  0.81288634  0.00456975  0.18807308     1.90100
O230        O  0.71320984  0.97940882  0.18027922    -0.73800
O231        O  0.73198890  0.01905277  0.30600251    -0.73700
O232        O  0.70201252  0.93859169  0.26167463    -0.79300
O233        O  0.80200277  0.04540721  0.32770182    -0.77600
O234        O  0.78544972  0.00071236  0.24286932    -1.13700
O235        O  0.87098146  0.04512612  0.28384888    -0.72900
C236        C  0.89190356  0.06312127  0.24598678     0.97800
C237        C  0.72270761  0.95714264  0.15180873     0.94200
Al238      Al  0.73201999  0.99921191  0.24299822     1.55600
O239        O  0.82860859  0.95887900  0.20194365    -0.77500
C240        C  0.76425453  0.04342435  0.33343157     0.98400
C241        C  0.78862675  0.07571139  0.19010343     0.93300
O242        O  0.80302306  0.05284884  0.16746590    -0.82800
O243        O  0.71044731  0.21575973  0.61559381    -0.82300
C244        C  0.58479513  0.06002146  0.52307031     0.97100
O245        O  0.60924468  0.09712021  0.50123030    -0.71400
O246        O  0.61141777  0.16649148  0.54308694    -0.75000
Al247      Al  0.65775478  0.15467603  0.52420740     1.49000
C248        C  0.59983466  0.17628414  0.58153451     0.92300
O249        O  0.61447907  0.10436210  0.66403042    -0.81200
O250        O  0.71869908  0.10632475  0.60100772    -0.74800
Al251      Al  0.66277095  0.15777930  0.63420649     1.90100
O252        O  0.63586569  0.05736167  0.64042037    -0.73800
O253        O  0.68187126  0.07936333  0.51710739    -0.73700
O254        O  0.59934671  0.04813929  0.55766654    -0.79300
O255        O  0.70480787  0.14809056  0.49393801    -0.77600
O256        O  0.66001640  0.13079919  0.57914089    -1.13700
O257        O  0.70424767  0.21567659  0.53916071    -0.72900
C258        C  0.72240633  0.23651881  0.57709340     0.97800
C259        C  0.61322852  0.06702033  0.66822809     0.94200
Al260      Al  0.65907908  0.07777109  0.57896900     1.55600
O261        O  0.61752836  0.17376460  0.61952680    -0.77500
C262        C  0.70405135  0.11105472  0.48870021     0.98400
C263        C  0.73297520  0.13200416  0.63684136     0.93300
O264        O  0.70986418  0.14740595  0.65689819    -0.82800
O265        O  0.13989577  0.42780397  0.34422348    -0.82300
C266        C  0.04620050  0.45940884  0.47718004     0.97100
O267        O  0.03646631  0.43377033  0.44148903    -0.71400
O268        O  0.05072423  0.41051098  0.35801028    -0.75000
Al269      Al  0.06853913  0.40624590  0.42042704     1.49000
C270        C  0.06158422  0.44404389  0.33196694     0.92300
O271        O  0.16735037  0.54591550  0.38623382    -0.81200
O272        O  0.20484475  0.50402945  0.46642784    -0.74800
Al273      Al  0.15045579  0.48484571  0.36966398     1.90100
O274        O  0.15199838  0.54336829  0.46125016    -0.73800
O275        O  0.13673077  0.43222408  0.50792617    -0.73700
O276        O  0.08303289  0.47276991  0.49996315    -0.79300
O277        O  0.06884104  0.38446893  0.48177234    -0.77600
O278        O  0.12105106  0.45954649  0.42314813    -1.13700
O279        O  0.09948872  0.37744903  0.39940908    -0.72900
C280        C  0.12643461  0.39007570  0.36470699     0.97800
C281        C  0.16543186  0.56532883  0.42346962     0.94200
Al282      Al  0.14229356  0.48566345  0.47909159     1.55600
O283        O  0.09832897  0.48080724  0.33912078    -0.77500
C284        C  0.10006450  0.39454950  0.51108327     0.98400
C285        C  0.22670361  0.50491369  0.42990060     0.93300
O286        O  0.20691863  0.49362755  0.39065556    -0.82800
O287        O  0.89775047  0.38428601  0.01140412    -0.82300
C288        C  0.86331546  0.26322669  0.14824394     0.97100
O289        O  0.88923394  0.27626570  0.11254791    -0.71400
O290        O  0.91634754  0.30983035  0.02774216    -0.75000
Al291      Al  0.91903527  0.33474886  0.08840110     1.49000
C292        C  0.88453300  0.28774273  0.99932998     0.92300
O293        O  0.78117007  0.28767331  0.05117807    -0.81200
O294        O  0.82934564  0.38358842  0.12907409    -0.74800
Al295      Al  0.84090067  0.33525601  0.03457587     1.90100
O296        O  0.78189342  0.29086412  0.12803663    -0.73800
O297        O  0.89769124  0.38350253  0.17347699    -0.73700
O298        O  0.84936498  0.28770535  0.16805056    -0.79300
O299        O  0.94154046  0.35888022  0.14877579    -0.77600
O300        O  0.86666430  0.33547673  0.08921923    -1.13700
O301        O  0.94970176  0.39350901  0.06436813    -0.72900
C302        C  0.93685451  0.40828662  0.03058194     0.97800
C303        C  0.76073767  0.27417028  0.09015799     0.94200
Al304      Al  0.84198396  0.33643424  0.14473760     1.55600
O305        O  0.84819823  0.28866717  0.00386465    -0.77500
C306        C  0.93385457  0.38214168  0.17757372     0.98400
C307        C  0.82139082  0.39638881  0.09053270     0.93300
O308        O  0.82641206  0.38030376  0.05241700    -0.82800
O309        O  0.04430496  0.23989877  0.82930724    -0.82300
C310        C  0.91496291  0.19483587  0.69769781     0.97100
O311        O  0.92913102  0.22136387  0.73290780    -0.71400
O312        O  0.96800467  0.25281397  0.81520438    -0.75000
Al313      Al  0.98931675  0.25339185  0.75284553     1.49000
C314        C  0.94752671  0.22180206  0.84476075     0.92300
O315        O  0.95151428  0.11846693  0.79678299    -0.81200
O316        O  0.03733867  0.16311300  0.71354276    -0.74800
Al317      Al  0.99672062  0.18064878  0.80931110     1.90100
O318        O  0.94459101  0.11568499  0.72027883    -0.73800
O319        O  0.03419736  0.22815437  0.66737373    -0.73700
O320        O  0.93874768  0.18016743  0.67771991    -0.79300
O321        O  0.00980723  0.27282271  0.69042872    -0.77600
O322        O  0.99154976  0.20204114  0.75387877    -1.13700
O323        O  0.04966210  0.28632252  0.77188391    -0.72900
C324        C  0.06663436  0.27652293  0.80598256     0.97800
C325        C  0.93374364  0.09605172  0.75950725     0.94200
Al326      Al  0.98899024  0.17433905  0.69946366     1.55600
O327        O  0.94907175  0.18583143  0.84064009    -0.77500
C328        C  0.03284545  0.26408087  0.66225542     0.98400
C329        C  0.05613626  0.16158543  0.75116167     0.93300
O330        O  0.04420201  0.17034778  0.78994590    -0.82800
O331        O  0.20645864  0.71553684  0.87689821    -0.82300
C332        C  0.04888336  0.59293755  0.96787833     0.97100
O333        O  0.08681836  0.61721025  0.98925564    -0.71400
O334        O  0.15692046  0.61968827  0.94828777    -0.75000
Al335      Al  0.14505279  0.66555921  0.96774524     1.49000
C336        C  0.16517614  0.60667502  0.90993102     0.92300
O337        O  0.09186830  0.62347679  0.82724885    -0.81200
O338        O  0.09902987  0.72858304  0.89489318    -0.74800
Al339      Al  0.14721044  0.67015488  0.85800700     1.90100
O340        O  0.04893470  0.64938120  0.85168741    -0.73800
O341        O  0.06944726  0.68822660  0.97670896    -0.73700
O342        O  0.03755721  0.60796369  0.93308607    -0.79300
O343        O  0.13906959  0.71274701  0.99842915    -0.77600
O344        O  0.12109588  0.66806853  0.91318734    -1.13700
O345        O  0.20623027  0.71175134  0.95353489    -0.72900
C346        C  0.22727500  0.72845209  0.91552763     0.97800
C347        C  0.05694851  0.62694895  0.82209068     0.94200
Al348      Al  0.06859623  0.66838288  0.91402230     1.55600
O349        O  0.16076594  0.62272999  0.87157414    -0.77500
C350        C  0.10186204  0.71171321  0.00413831     0.98400
C351        C  0.12550842  0.74360070  0.85970680     0.93300
O352        O  0.13961918  0.72012027  0.83773583    -0.82800
O353        O  0.02853293  0.88801372  0.27174404    -0.82300
C354        C  0.91786838  0.73125142  0.17991520     0.97100
O355        O  0.93210346  0.77299930  0.17388985    -0.71400
O356        O  0.95491987  0.85113408  0.21173816    -0.75000
Al357      Al  0.98853059  0.82396104  0.18848835     1.49000
C358        C  0.93098518  0.84484908  0.24809140     0.92300
O359        O  0.95994105  0.77560102  0.33550479    -0.81200
O360        O  0.04005878  0.76824258  0.28631983    -0.74800
Al361      Al  0.99303699  0.82795622  0.29646356     1.90100
O362        O  0.94615635  0.71798239  0.29115567    -0.73800
O363        O  0.03603786  0.76239190  0.19584135    -0.73700
O364        O  0.94175921  0.71769127  0.20037136    -0.79300
O365        O  0.01974460  0.80249828  0.15001589    -0.77600
O366        O  0.99083727  0.79910521  0.24285903    -1.13700
O367        O  0.04563997  0.87847994  0.19957240    -0.72900
C368        C  0.05251436  0.90390527  0.23504007     0.97800
C369        C  0.94200663  0.73328048  0.32998468     0.94200
Al370      Al  0.99097724  0.74651679  0.24333353     1.55600
O371        O  0.93662480  0.82636200  0.28391363    -0.77500
C372        C  0.03888328  0.77971665  0.15639449     0.98400
C373        C  0.06314415  0.80564236  0.30801326     0.93300
O374        O  0.04891585  0.83319824  0.31308759    -0.82800
O375        O  0.77889085  0.49671003  0.61329554    -0.82300
C376        C  0.93257790  0.53603115  0.51643477     0.97100
O377        O  0.89377470  0.52040071  0.49653831    -0.71400
O378        O  0.82194478  0.45401447  0.53743316    -0.75000
Al379      Al  0.83703632  0.51325520  0.51943889     1.49000
C380        C  0.82020268  0.43394538  0.57490591     0.92300
O381        O  0.89683007  0.52580789  0.65802850    -0.81200
O382        O  0.88408444  0.62145010  0.59664023    -0.74800
Al383      Al  0.84003727  0.51432418  0.62941967     1.90100
O384        O  0.93795819  0.59460128  0.63331081    -0.73800
O385        O  0.91278679  0.61431047  0.51187135    -0.73700
O386        O  0.94582615  0.56551558  0.54925646    -0.79300
O387        O  0.84466120  0.56656195  0.48810710    -0.77600
O388        O  0.86338754  0.53978965  0.57382018    -1.13700
O389        O  0.77769270  0.50189534  0.53671209    -0.72900
C390        C  0.75742937  0.49333716  0.57601987     0.97800
C391        C  0.93117763  0.56494970  0.66290061     0.94200
Al392      Al  0.91510098  0.59360499  0.57271742     1.55600
O393        O  0.83000668  0.45536320  0.61353785    -0.77500
C394        C  0.88109682  0.60389995  0.48340432     0.98400
C395        C  0.85840877  0.60820792  0.63271359     0.93300
O396        O  0.84576332  0.57012838  0.65240932    -0.82800
C397        C  0.91909186  0.70114468  0.37020209    -0.00600
C398        C  0.89120165  0.65406304  0.36098703    -0.12500
C399        C  0.87604177  0.62175361  0.39740774     0.01600
C400        C  0.88851910  0.63615169  0.44448437    -0.00700
C401        C  0.91435614  0.68314005  0.45397870    -0.12500
C402        C  0.92959895  0.71544256  0.41779865     0.01500
H403        H  0.88293136  0.64217245  0.32489655     0.14500
H404        H  0.92436715  0.69470118  0.48995482     0.14500
C405        C  0.95905434  0.76268456  0.43073613     0.36100
C406        C  0.85137259  0.57399734  0.38500876     0.36000
N407        N  0.98284545  0.80049430  0.44113840    -0.44200
N408        N  0.83188269  0.53570769  0.37505771    -0.44200
C409        C  0.06193935  0.77028937  0.11651259    -0.00600
C410        C  0.09162735  0.75368190  0.12595941    -0.12500
C411        C  0.10764482  0.73688930  0.08968156     0.01600
C412        C  0.09427555  0.73684931  0.04275363    -0.00700
C413        C  0.06685825  0.75572446  0.03304319    -0.12500
C414        C  0.05044223  0.77200185  0.06899634     0.01500
H415        H  0.10065562  0.75177676  0.16205571     0.14500
H416        H  0.05621522  0.75564286  0.99709006     0.14500
C417        C  0.01848956  0.78619376  0.05588543     0.36100
C418        C  0.13413622  0.71613972  0.10206062     0.36000
N419        N  0.99257705  0.79711044  0.04524539    -0.44200
N420        N  0.15508759  0.69920285  0.11201150    -0.44200
C421        C  0.02625420  0.60889020  0.78025287    -0.00600
C422        C  0.01098364  0.63688767  0.76178207    -0.12500
C423        C  0.97982975  0.62252486  0.72470447     0.01600
C424        C  0.96271537  0.57876495  0.70424484    -0.00700
C425        C  0.97734510  0.55005054  0.72298532    -0.17900
C426        C  0.00908598  0.56490089  0.76062235     0.01500
H427        H  0.02335401  0.67056472  0.77679163     0.14500
H428        H  0.96438848  0.51632497  0.70802919     0.14500
C429        C  0.02189279  0.53395483  0.77993687     0.36100
C430        C  0.96480133  0.65329374  0.70972581     0.36000
N431        N  0.03211086  0.50921805  0.79582820    -0.44200
N432        N  0.95294784  0.67809778  0.69792320    -0.44200
C433        C  0.92356347  0.22967109  0.88482784    -0.00600
C434        C  0.89762985  0.25052158  0.87594133    -0.12500
C435        C  0.88106219  0.26609494  0.91285529     0.01600
C436        C  0.89187383  0.26264834  0.95999254    -0.00700
C437        C  0.91595676  0.23985117  0.96895885    -0.12500
C438        C  0.93098915  0.22268673  0.93209502     0.01500
H439        H  0.89141336  0.25588963  0.83981897     0.14500
H440        H  0.92428831  0.23663812  0.00498532     0.14500
C441        C  0.95663066  0.20083641  0.94369202     0.36100
C442        C  0.85570490  0.28820469  0.90117509     0.36000
N443        N  0.97700119  0.18312754  0.95300154    -0.44200
N444        N  0.83515940  0.30571867  0.89182992    -0.44200
C445        C  0.01837968  0.54595328  0.98362383    -0.00600
C446        C  0.02960886  0.53249270  0.02541444    -0.12500
C447        C  0.00469116  0.48782942  0.04078197     0.01600
C448        C  0.96698804  0.45515086  0.01411875    -0.00700
C449        C  0.95551858  0.46861962  0.97233889    -0.12500
C450        C  0.98067143  0.51342700  0.95681661     0.01500
H451        H  0.05836999  0.55698053  0.04642972     0.14500
H452        H  0.92663654  0.44406665  0.95152751     0.14500
C453        C  0.96698653  0.52416158  0.91299009     0.36100
C454        C  0.01898693  0.47780913  0.08449327     0.36000
N455        N  0.95574001  0.53245923  0.87790220    -0.44200
N456        N  0.03165567  0.47117227  0.11952611    -0.44200
C457        C  0.96186489  0.51711255  0.50427490    -0.00600
C458        C  0.99631992  0.52438112  0.53639876    -0.12500
C459        C  0.02289380  0.50438093  0.52986615     0.01600
C460        C  0.01532054  0.47628842  0.49011603    -0.00700
C461        C  0.98026957  0.46829852  0.45841662    -0.12500
C462        C  0.95380901  0.48852735  0.46487984     0.01500
H463        H  0.00229397  0.54532561  0.56754090     0.14500
H464        H  0.97421904  0.44721583  0.42738243     0.14500
C465        C  0.91984253  0.48015662  0.42965568     0.36100
C466        C  0.05744181  0.51369614  0.56475016     0.36000
N467        N  0.89282997  0.47340903  0.40119873    -0.44200
N468        N  0.08513334  0.52142724  0.59273390    -0.44200
C469        C  0.05736339  0.29668830  0.62334954    -0.00600
C470        C  0.08090549  0.34368125  0.63354671    -0.12500
C471        C  0.09845352  0.37627060  0.59755686     0.01600
C472        C  0.09150203  0.36213008  0.55000381    -0.00700
C473        C  0.06953365  0.31516217  0.53981505    -0.12500
C474        C  0.05310089  0.28257374  0.57589868     0.01500
H475        H  0.08437704  0.35498054  0.66987769     0.14500
H476        H  0.06379550  0.30383788  0.50341364     0.14500
C477        C  0.02886893  0.23489470  0.56318932     0.36100
C478        C  0.12023681  0.42387093  0.61032450     0.36000
N479        N  0.00940525  0.19664691  0.55306917    -0.44200
N480        N  0.13773212  0.46204970  0.62047211    -0.44200
C481        C  0.03236787  0.43789731  0.29090569    -0.00600
C482        C  0.98835050  0.43124726  0.29783533    -0.12500
C483        C  0.95627854  0.41595084  0.26088922     0.01600
C484        C  0.96785319  0.40600559  0.21617624    -0.00700
C485        C  0.01255943  0.41398726  0.20950061    -0.12500
C486        C  0.04470682  0.43023815  0.24590959     0.01500
H487        H  0.97838923  0.43618420  0.33273210     0.14500
H488        H  0.02214282  0.40576820  0.17598486     0.14500
C489        C  0.08912427  0.43550250  0.23709508     0.36100
C490        C  0.91083343  0.40716432  0.27113611     0.36000
N491        N  0.12465236  0.43966027  0.22991455    -0.44200
N492        N  0.87437244  0.39997054  0.27963805    -0.44200
C493        C  0.86918597  0.17973174  0.68045133    -0.00600
C494        C  0.84181252  0.13404346  0.66685001    -0.12500
C495        C  0.79652315  0.11707968  0.65381661     0.01600
C496        C  0.77858687  0.14643273  0.65418228    -0.00700
C497        C  0.80603967  0.19210458  0.66765666    -0.12500
C498        C  0.85124531  0.20907446  0.68061202     0.01500
H499        H  0.85546042  0.11131754  0.66766903     0.14500
H500        H  0.79252262  0.21491400  0.66669848     0.14500
C501        C  0.87880036  0.25694858  0.69219258     0.36100
C502        C  0.76886837  0.06929715  0.64198496     0.36000
N503        N  0.90093129  0.29527812  0.70142091    -0.44200
N504        N  0.74666969  0.03100178  0.63263673    -0.44200
C505        C  0.75552101  0.28679271  0.57669014    -0.00600
C506        C  0.76558701  0.30987571  0.53361705    -0.12500
C507        C  0.78911431  0.35757829  0.53167197     0.01600
C508        C  0.80326233  0.38389115  0.57379247    -0.00700
C509        C  0.79656002  0.36089107  0.61652850    -0.12500
C510        C  0.77326436  0.31315643  0.61844045     0.01500
H511        H  0.75332148  0.29059157  0.50106753     0.14500
H512        H  0.80789277  0.38018864  0.64915698     0.14500
C513        C  0.76692659  0.29277099  0.66425357     0.36100
C514        C  0.79640808  0.37789712  0.48571018     0.36000
N515        N  0.76200124  0.27673500  0.70110682    -0.44200
N516        N  0.80195190  0.39380263  0.44872128    -0.44200
C517        C  0.80663250  0.12342879  0.17865505    -0.00600
C518        C  0.85363748  0.15026925  0.16985529    -0.12500
C519        C  0.87374013  0.19697788  0.16335247     0.01600
C520        C  0.84623014  0.21700488  0.16465267    -0.00700
C521        C  0.79954602  0.19046830  0.17486329    -0.12500
C522        C  0.77949891  0.14388189  0.18218315     0.01500
H523        H  0.87494052  0.13490219  0.16938494     0.14500
H524        H  0.77827782  0.20583977  0.17502038     0.14500
C525        C  0.73096576  0.11778689  0.19161386     0.36100
C526        C  0.92266627  0.22383000  0.15675047     0.36000
N527        N  0.69212266  0.09699622  0.19931317    -0.44200
N528        N  0.96188037  0.24552182  0.15177385    -0.44200
C529        C  0.72616814  0.10257645  0.44767750    -0.00600
C530        C  0.75906378  0.08980952  0.45518953    -0.12500
C531        C  0.77451823  0.07334272  0.41800757     0.01600
C532        C  0.75598534  0.06820555  0.37238381    -0.00700
C533        C  0.72435641  0.08269820  0.36478327    -0.12500
C534        C  0.70960756  0.09986907  0.40168560     0.01500
H535        H  0.77152068  0.09121638  0.49055426     0.14500
H536        H  0.70980864  0.07911400  0.33005289     0.14500
C537        C  0.67457394  0.11089800  0.39216749     0.36100
C538        C  0.80688104  0.05901627  0.42848243     0.36000
N539        N  0.64633544  0.11949814  0.38453049    -0.44200
N540        N  0.83285829  0.04758625  0.43699538    -0.44200
C541        C  0.84972464  0.90972577  0.24155086    -0.00600
C542        C  0.86504730  0.90319095  0.28526108    -0.12500
C543        C  0.88933626  0.88013503  0.28877864     0.01600
C544        C  0.89852785  0.86222023  0.24802295    -0.00700
C545        C  0.88081442  0.86616067  0.20469282    -0.12500
C546        C  0.85667742  0.88952366  0.20110219     0.01500
H547        H  0.86026790  0.91829487  0.31693125     0.14500
H548        H  0.88704552  0.85204267  0.17306974     0.14500
C549        C  0.84006917  0.89256980  0.15542782     0.36100
C550        C  0.90757670  0.87885818  0.33413106     0.36000
N551        N  0.82668938  0.89491522  0.11881863    -0.44200
N552        N  0.92237569  0.87805428  0.37044370    -0.44200
C553        C  0.62605970  0.89900512  0.03749493    -0.00600
C554        C  0.67192183  0.91141303  0.02976531    -0.12500
C555        C  0.70373717  0.92735921  0.06699043     0.01600
C556        C  0.68996638  0.93244023  0.11264332    -0.00700
C557        C  0.64354409  0.91805343  0.12029899    -0.12500
C558        C  0.61178539  0.90131535  0.08350913     0.01500
H559        H  0.68322707  0.91018063  0.99431654     0.14500
H560        H  0.63219790  0.92139493  0.15507518     0.14500
C561        C  0.56547629  0.89038713  0.09317007     0.36100
C562        C  0.75065302  0.94102886  0.05663470     0.36000
N563        N  0.52842178  0.88182785  0.10080672    -0.44200
N564        N  0.78823097  0.95185818  0.04826392    -0.44200
C565        C  0.55649054  0.97278724  0.78332931    -0.00600
C566        C  0.54566617  0.95674394  0.73682780    -0.12500
C567        C  0.56147017  0.98713362  0.69878689     0.01600
C568        C  0.58754802  0.03472004  0.70691033    -0.00700
C569        C  0.59486628  0.05082976  0.75347847    -0.12500
C570        C  0.58019020  0.02044073  0.79149048     0.01500
H571        H  0.52752954  0.92036155  0.73001227     0.14500
H572        H  0.61480409  0.08719070  0.76020324     0.14500
C573        C  0.59113269  0.03907111  0.83860165     0.36100
C574        C  0.55165313  0.96858259  0.65159890     0.36000
N575        N  0.59993274  0.05396305  0.87636834    -0.44200
N576        N  0.54382732  0.95371330  0.61378809    -0.44200
C577        C  0.37504339  0.81033416  0.90859285    -0.00600
C578        C  0.35268526  0.79996642  0.95258699    -0.12500
C579        C  0.30484707  0.77564404  0.95619708     0.01600
C580        C  0.27772933  0.76124785  0.91499544    -0.00700
C581        C  0.30010381  0.77489348  0.87114727    -0.12500
C582        C  0.34792248  0.79879841  0.86753687     0.01500
H583        H  0.37258202  0.80903917  0.98471570     0.14500
H584        H  0.28021073  0.76513712  0.83899045     0.14500
C585        C  0.36768988  0.80942234  0.82096771     0.36100
C586        C  0.28509184  0.76476514  0.00279147     0.36000
N587        N  0.38334033  0.81773496  0.78355341    -0.44200
N588        N  0.26946896  0.75609120  0.04021183    -0.44200
C589        C  0.20071257  0.84763366  0.34730172    -0.00600
C590        C  0.17633838  0.86466110  0.37198108    -0.12500
C591        C  0.13118740  0.85069257  0.36092394     0.01600
C592        C  0.10912590  0.81853955  0.32457800    -0.00700
C593        C  0.13305533  0.80103326  0.30015420    -0.12500
C594        C  0.17846889  0.81536636  0.31083166     0.01500
H595        H  0.19242045  0.88907209  0.40040338     0.14500
H596        H  0.11665959  0.77695905  0.27146025     0.14500
C597        C  0.20093341  0.79659493  0.28313011     0.36100
C598        C  0.10852884  0.86973821  0.38790775     0.36000
N599        N  0.21873285  0.78149191  0.26071193    -0.44200
N600        N  0.09062363  0.88526489  0.40946626    -0.44200
C601        C  0.44736322  0.97165961  0.48372702    -0.00600
C602        C  0.45723137  0.98942145  0.52932346    -0.12500
C603        C  0.50222485  0.01929814  0.54238611     0.01600
C604        C  0.53763058  0.03065248  0.50948898    -0.00700
C605        C  0.52782439  0.01306121  0.46381240    -0.12500
C606        C  0.48275422  0.98332195  0.45065407     0.01500
H607        H  0.42971297  0.98070595  0.55427625     0.14500
H608        H  0.55539498  0.02179290  0.43892138     0.14500
C609        C  0.47401684  0.96364054  0.40394172     0.36100
C610        C  0.51090840  0.03952936  0.58883963     0.36000
N611        N  0.46765387  0.94790062  0.36655309    -0.44200
N612        N  0.51725579  0.05584231  0.62594790    -0.44200
C613        C  0.22960205  0.71237274  0.42748430    -0.00600
C614        C  0.21221015  0.68843215  0.38478952    -0.12500
C615        C  0.18901580  0.64067140  0.38271452     0.01600
C616        C  0.18233563  0.61529583  0.42409787    -0.00700
C617        C  0.19621385  0.63898396  0.46726728    -0.12500
C618        C  0.21966605  0.68676313  0.46938464     0.01500
H619        H  0.21827882  0.70706889  0.35226463     0.14500
H620        H  0.19089223  0.62022961  0.49958390     0.14500
C621        C  0.23484036  0.70807378  0.51500595     0.36100
C622        C  0.17308970  0.61888614  0.33740865     0.36000
N623        N  0.24699402  0.72498422  0.55163902    -0.44200
N624        N  0.16032883  0.60147894  0.30107873    -0.44200
C625        C  0.22121455  0.92886592  0.62267240    -0.00600
C626        C  0.22172579  0.94498938  0.57739989    -0.12500
C627        C  0.23933007  0.93244279  0.53901928     0.01600
C628        C  0.25578736  0.90194144  0.54526681    -0.00700
C629        C  0.25241371  0.88353501  0.59020022    -0.12500
C630        C  0.23614638  0.89737519  0.62884997     0.01500
H631        H  0.21102284  0.96977532  0.57252933     0.14500
H632        H  0.26493991  0.86030125  0.59574013     0.14500
C633        C  0.23617612  0.87980093  0.67486150     0.36100
C634        C  0.24126120  0.95264178  0.49397282     0.36000
N635        N  0.23613215  0.86574518  0.71177868    -0.44200
N636        N  0.24303692  0.96927893  0.45810681    -0.44200
C637        C  0.14196765  0.79041333  0.84580891    -0.00600
C638        C  0.18924264  0.81962872  0.84158361    -0.12500
C639        C  0.20714314  0.86584741  0.83332000     0.01600
C640        C  0.17726725  0.88293692  0.82888932    -0.00700
C641        C  0.13002256  0.85387761  0.83387069    -0.12500
C642        C  0.11210413  0.80763260  0.84221161     0.01500
H643        H  0.21221301  0.80649454  0.84591816     0.14500
H644        H  0.10704479  0.86696344  0.82921410     0.14500
C645        C  0.06305804  0.77818659  0.84474240     0.36100
C646        C  0.25617283  0.89528898  0.83055655     0.36000
N647        N  0.02378771  0.75446028  0.84653315    -0.44200
N648        N  0.29542121  0.91903148  0.82843411    -0.44200
C649        C  0.08930651  0.14486866  0.75010486    -0.00600
C650        C  0.09123211  0.12243774  0.70931101    -0.12500
C651        C  0.11332006  0.09715682  0.70879496     0.01600
C652        C  0.13531881  0.09418990  0.74997242    -0.00700
C653        C  0.13655364  0.11965967  0.78974504    -0.12500
C654        C  0.11410477  0.14489502  0.79016826     0.01500
H655        H  0.07289474  0.12218930  0.67807308     0.14500
H656        H  0.15389017  0.11875557  0.82128108     0.14500
C657        C  0.11664874  0.16973584  0.83258632     0.36100
C658        C  0.10955837  0.07231693  0.66594042     0.36000
N659        N  0.11884092  0.18966927  0.86661444    -0.44200
N660        N  0.10604719  0.05233260  0.63155688    -0.44200
C661        C  0.48021184  0.02916350  0.02109921    -0.00600
C662        C  0.47694361  0.01862634  0.97321820    -0.12500
C663        C  0.49177688  0.99000117  0.95609226     0.01600
C664        C  0.51126920  0.97255896  0.98721370    -0.00700
C665        C  0.51471226  0.98312279  0.03522784    -0.12500
C666        C  0.49953171  0.01165905  0.05245207     0.01500
H667        H  0.46175940  0.03194685  0.94937167     0.14500
H668        H  0.53006114  0.96986600  0.05892628     0.14500
C669        C  0.50639964  0.02440521  0.10164895     0.36100
C670        C  0.48416267  0.97702879  0.90700195     0.36000
N671        N  0.51240862  0.03481313  0.14097730    -0.44200
N672        N  0.47746960  0.96648397  0.86775615    -0.44200
C673        C  0.36061599  0.09001818  0.95851863    -0.00600
C674        C  0.34768567  0.12024828  0.94030083    -0.12500
C675        C  0.31584823  0.10690633  0.90292742     0.01600
C676        C  0.29727806  0.06304402  0.88255087    -0.00700
C677        C  0.31084070  0.03347827  0.90051872    -0.12500
C678        C  0.34164527  0.04615923  0.93777032     0.01500
H679        H  0.36181741  0.15396247  0.95569692     0.14500
H680        H  0.29701636  0.99967554  0.88525391     0.14500
C681        C  0.35379122  0.01327258  0.95303240     0.36100
C682        C  0.30391932  0.13905358  0.88522326     0.36000
N683        N  0.36310438  0.98664546  0.96518874    -0.44200
N684        N  0.29439772  0.16490373  0.87101914    -0.44200
C685        C  0.42709170  0.02850502  0.21762432    -0.00600
C686        C  0.39929045  0.98197387  0.20630271    -0.12500
C687        C  0.38276636  0.94844103  0.24125505     0.01600
C688        C  0.39376031  0.96117743  0.28875730    -0.00700
C689        C  0.42352287  0.00739496  0.29992085    -0.12500
C690        C  0.44058778  0.04096082  0.26485115     0.01500
H691        H  0.38863429  0.97194258  0.17012393     0.14500
H692        H  0.43164759  0.01753559  0.33652096     0.14500
C693        C  0.46840787  0.08812275  0.27878039     0.36100
C694        C  0.35095586  0.90179589  0.22812861     0.36000
N695        N  0.49064165  0.12596557  0.28986613    -0.44200
N696        N  0.32521661  0.86440325  0.21783790    -0.44200
C697        C  0.61293238  0.19222433  0.09048588    -0.00600
C698        C  0.63717523  0.19924536  0.13262044    -0.12500
C699        C  0.68520301  0.22327099  0.13345038     0.01600
C700        C  0.71042970  0.24089810  0.09117691    -0.00700
C701        C  0.68615124  0.23054297  0.04871413    -0.12500
C702        C  0.63830799  0.20691533  0.04784236     0.01500
H703        H  0.61862836  0.18760166  0.16553879     0.14500
H704        H  0.70456711  0.24307012  0.01583111     0.14500
C705        C  0.61700588  0.20087110  0.00240659     0.36100
C706        C  0.70709019  0.23039213  0.17865997     0.36000
N707        N  0.60026854  0.19643995  0.96590024    -0.44200
N708        N  0.72426844  0.23604537  0.21509680    -0.44200
C709        C  0.35756612  0.15154448  0.15625475    -0.00600
C710        C  0.33555148  0.14172133  0.19978345    -0.12500
C711        C  0.30593674  0.15758181  0.21061787     0.01600
C712        C  0.29885594  0.18411336  0.17760645    -0.00700
C713        C  0.32109780  0.19420904  0.13417572    -0.12500
C714        C  0.35071579  0.17831299  0.12333006     0.01500
H715        H  0.34063702  0.12076011  0.22471655     0.14500
H716        H  0.31595773  0.21513287  0.10924395     0.14500
C717        C  0.37490534  0.19140054  0.07904396     0.36100
C718        C  0.28164917  0.14440100  0.25486850     0.36000
N719        N  0.39422179  0.20264569  0.04356902    -0.44200
N720        N  0.26212743  0.13315956  0.29023955    -0.44200
C721        C  0.14312634  0.36058598  0.34848035    -0.00600
C722        C  0.14229007  0.35158946  0.30034511    -0.12500
C723        C  0.15777393  0.32321438  0.28378592     0.01600
C724        C  0.17494004  0.30425022  0.31594097    -0.00700
C725        C  0.17573060  0.31321014  0.36405962    -0.12500
C726        C  0.16033827  0.34163489  0.38059988     0.01500
H727        H  0.12862316  0.36593427  0.27589777     0.14500
H728        H  0.18928179  0.29874749  0.38853626     0.14500
C729        C  0.16495841  0.35275511  0.43018516     0.36100
C730        C  0.15329272  0.31214819  0.23418884     0.36000
N731        N  0.16923571  0.36180793  0.46986315    -0.44200
N732        N  0.14912442  0.30317203  0.19449155    -0.44200
C733        C  0.08661951  0.95340799  0.23424261    -0.00600
C734        C  0.10529363  0.97579850  0.27728082    -0.12500
C735        C  0.12995232  0.02345749  0.28064037     0.01600
C736        C  0.13600617  0.04991763  0.24031880    -0.00700
C737        C  0.12087009  0.02736125  0.19655968    -0.12500
C738        C  0.09638781  0.97973243  0.19319516     0.01500
H739        H  0.09915518  0.95591736  0.30892315     0.14500
H740        H  0.12571431  0.04684306  0.16491666     0.14500
C741        C  0.07868807  0.95918105  0.14774778     0.36100
C742        C  0.14784054  0.04394236  0.32604239     0.36000
N743        N  0.06451378  0.94278764  0.11130411    -0.44200
N744        N  0.16230934  0.06028697  0.36243049    -0.44200
C745        C  0.94257219  0.09554848  0.24486670    -0.00600
C746        C  0.96510944  0.10532149  0.20094065    -0.12500
C747        C  0.01296610  0.12801562  0.19739719     0.01600
C748        C  0.04012238  0.14247519  0.23853944    -0.00700
C749        C  0.01764098  0.13617972  0.28222278    -0.12500
C750        C  0.96969802  0.11297590  0.28575777     0.01500
H751        H  0.94526451  0.09307441  0.16883592     0.14500
H752        H  0.03749667  0.14780806  0.31436226     0.14500
C753        C  0.94961937  0.10682271  0.33199700     0.36100
C754        C  0.03261402  0.13375010  0.15098649     0.36000
N755        N  0.93364232  0.10197016  0.36911114    -0.44200
N756        N  0.04806372  0.13805399  0.11367084    -0.44200
C757        C  0.35023776  0.20929486  0.64983071    -0.00600
C758        C  0.37021537  0.18429826  0.66502844    -0.12500
C759        C  0.34323571  0.13830364  0.67595542     0.01600
C760        C  0.29522658  0.11700074  0.67301950    -0.00700
C761        C  0.27524473  0.14158599  0.65659157    -0.12500
C762        C  0.30226544  0.18735178  0.64464893     0.01500
H763        H  0.40712782  0.20037891  0.66702118     0.14500
H764        H  0.23832845  0.12543759  0.65444928     0.14500
C765        C  0.27963204  0.21095856  0.62833780     0.36100
C766        C  0.36574711  0.11341943  0.68822278     0.36000
N767        N  0.26140112  0.22966712  0.61499629    -0.44200
N768        N  0.38363476  0.09327874  0.69771709    -0.44200
C769        C  0.28999918  0.23095919  0.37492907    -0.00600
C770        C  0.33683308  0.24843301  0.36620973    -0.12500
C771        C  0.36874400  0.26305221  0.40326283     0.01600
C772        C  0.35430268  0.26226556  0.45019605    -0.00700
C773        C  0.30711768  0.24271387  0.45894767    -0.12500
C774        C  0.27506437  0.22645314  0.42206430     0.01500
H775        H  0.34869001  0.25176632  0.33014177     0.14500
H776        H  0.29531982  0.24138394  0.49477888     0.14500
C777        C  0.22737541  0.20813818  0.43334150     0.36100
C778        C  0.41634891  0.28117000  0.39182778     0.36000
N779        N  0.18913393  0.19331360  0.44242386    -0.44200
N780        N  0.45448030  0.29537953  0.38267293    -0.44200
C781        C  0.60936009  0.42674613  0.57834080    -0.00600
C782        C  0.63412697  0.44218844  0.62059590    -0.12500
C783        C  0.68223769  0.46702302  0.62083074     0.01600
C784        C  0.70703559  0.47591260  0.57801705    -0.00700
C785        C  0.68228186  0.46373481  0.53575492    -0.12500
C786        C  0.63436068  0.43997594  0.53537023     0.01500
H787        H  0.61590909  0.43390206  0.65385509     0.14500
H788        H  0.70037396  0.47121805  0.50244546     0.14500
C789        C  0.61244325  0.42847224  0.48984406     0.36100
C790        C  0.70488481  0.48273821  0.66569267     0.36000
N791        N  0.59511456  0.41947827  0.45326568    -0.44200
N792        N  0.72296066  0.49563206  0.70164147    -0.44200
C793        C  0.56754881  0.19412847  0.58045983    -0.00600
C794        C  0.55896353  0.20770954  0.53684016    -0.12500
C795        C  0.53458740  0.23073511  0.53356591     0.01600
C796        C  0.51749757  0.24072176  0.57470384    -0.00700
C797        C  0.52351999  0.22448270  0.61803972    -0.12500
C798        C  0.54819743  0.20164525  0.62128998     0.01500
H799        H  0.57303593  0.20206923  0.50484647     0.14500
H800        H  0.51023692  0.23097803  0.65012552     0.14500
C801        C  0.55343369  0.18696782  0.66714260     0.36100
C802        C  0.52948387  0.24503569  0.48745322     0.36000
N803        N  0.55755552  0.17518038  0.70391073    -0.44200
N804        N  0.52553233  0.25645295  0.45042088    -0.44200
C805        C  0.39787932  0.43581287  0.78443210    -0.00600
C806        C  0.39107184  0.44431429  0.73789013    -0.12500
C807        C  0.40526363  0.42777004  0.69987379     0.01600
C808        C  0.42782644  0.40307091  0.70797817    -0.00700
C809        C  0.43837807  0.39825446  0.75447135    -0.12500
C810        C  0.42323601  0.41393837  0.79255670     0.01500
H811        H  0.37196924  0.46131556  0.73116138     0.14500
H812        H  0.45594482  0.37972152  0.76122042     0.14500
C813        C  0.43349099  0.40652946  0.83973625     0.36100
C814        C  0.39501107  0.43551100  0.65282209     0.36000
N815        N  0.44188797  0.40070079  0.87751567    -0.44200
N816        N  0.38656568  0.44176950  0.61523506    -0.44200
C817        C  0.25760073  0.36870246  0.04161888    -0.00600
C818        C  0.23308806  0.32164891  0.03155421    -0.12500
C819        C  0.21713860  0.28904284  0.06762570     0.01600
C820        C  0.22682489  0.30317647  0.11513423    -0.00700
C821        C  0.24963544  0.35018840  0.12526828    -0.12500
C822        C  0.26433086  0.38276993  0.08919850     0.01500
H823        H  0.22771664  0.31028228  0.99514080     0.14500
H824        H  0.25714862  0.36157240  0.16159244     0.14500
C825        C  0.28922617  0.43044098  0.10182689     0.36100
C826        C  0.19395139  0.24140389  0.05471414     0.36000
N827        N  0.30915385  0.46871142  0.11181955    -0.44200
N828        N  0.17532743  0.20322221  0.04434473    -0.44200
C829        C  0.20452872  0.36615663  0.84329070    -0.00600
C830        C  0.19349845  0.35467535  0.79607161    -0.12500
C831        C  0.14836820  0.32517166  0.78310855     0.01600
C832        C  0.11388301  0.30799851  0.81795428    -0.00700
C833        C  0.12486261  0.32003676  0.86503358    -0.12500
C834        C  0.16994341  0.34926763  0.87802410     0.01500
H835        H  0.22032931  0.36747610  0.76965559     0.14500
H836        H  0.09809376  0.30693467  0.89153265     0.14500
C837        C  0.17909770  0.36275191  0.92684801     0.36100
C838        C  0.13923399  0.31050899  0.73459476     0.36000
N839        N  0.18502569  0.37317454  0.96614091    -0.44200
N840        N  0.13318179  0.29883504  0.69565550    -0.44200
C841        C  0.42254018  0.62131414  0.90799662    -0.00600
C842        C  0.43178485  0.64456928  0.86511448    -0.12500
C843        C  0.45531693  0.69228314  0.86343994     0.01600
C844        C  0.47030502  0.71839378  0.90565374    -0.00700
C845        C  0.46458850  0.69517039  0.94808822    -0.12500
C846        C  0.44146290  0.64738031  0.94962896     0.01500
H847        H  0.41852582  0.62544071  0.83263265     0.14500
H848        H  0.47698521  0.71435828  0.98065535     0.14500
C849        C  0.43726257  0.62640619  0.99473567     0.36100
C850        C  0.46082475  0.71271600  0.81778200     0.36000
N851        N  0.43407983  0.60970273  0.03090516    -0.44200
N852        N  0.46487896  0.72857851  0.78097123    -0.44200
C853        C  0.18363671  0.57479453  0.91087320    -0.00600
C854        C  0.19346718  0.56016280  0.86831205    -0.12500
C855        C  0.21764723  0.53662676  0.86733362     0.01600
C856        C  0.23294219  0.52703429  0.90987896    -0.00700
C857        C  0.22036850  0.53893869  0.95243076    -0.12500
C858        C  0.19640217  0.56252003  0.95347388     0.01500
H859        H  0.18370622  0.56856481  0.83533611     0.14500
H860        H  0.23117630  0.53170977  0.98543722     0.14500
C861        C  0.18804298  0.57560242  0.99929489     0.36100
C862        C  0.22716927  0.52420397  0.82174100     0.36000
N863        N  0.18171354  0.58622793  0.03608344    -0.44200
N864        N  0.23471193  0.51442181  0.78507190    -0.44200
C865        C  0.68358456  0.81104402  0.82687148    -0.00600
C866        C  0.64813382  0.80260788  0.79554193    -0.12500
C867        C  0.62231987  0.82354344  0.80147249     0.01600
C868        C  0.63173189  0.85369532  0.83973625    -0.00700
C869        C  0.66666379  0.86146447  0.87150309    -0.12500
C870        C  0.69224029  0.84030894  0.86576024     0.01500
H871        H  0.64112244  0.78043622  0.76524820     0.14500
H872        H  0.67365827  0.88351484  0.90188807     0.14500
C873        C  0.72652081  0.84920867  0.90082666     0.36100
C874        C  0.58709963  0.81356028  0.76721745     0.36000
N875        N  0.75384692  0.85649003  0.92910031    -0.44200
N876        N  0.55900213  0.80541419  0.73959867    -0.44200
C877        C  0.80360751  0.68977320  0.67994507    -0.00600
C878        C  0.80926332  0.66206754  0.71221963    -0.12500
C879        C  0.82815442  0.63588194  0.69813578     0.01600
C880        C  0.84115595  0.63695595  0.65074884    -0.00700
C881        C  0.83513835  0.66435005  0.61848184    -0.12500
C882        C  0.81649206  0.69064506  0.63256593     0.01500
H883        H  0.80031507  0.66199176  0.74895479     0.14500
H884        H  0.84422485  0.66460048  0.58175482     0.14500
C885        C  0.81004318  0.71708663  0.59727314     0.36100
C886        C  0.83555595  0.60998028  0.73337587     0.36000
N887        N  0.80506139  0.73811618  0.56866855    -0.44200
N888        N  0.84166192  0.58931867  0.76154246    -0.44200
C889        C  0.85231064  0.94819913  0.75641102    -0.00600
C890        C  0.86558360  0.97169735  0.79977612    -0.12500
C891        C  0.89029578  0.01948342  0.80220611     0.01600
C892        C  0.90188145  0.04545961  0.76046220    -0.00700
C893        C  0.88599529  0.02188239  0.71732757    -0.12500
C894        C  0.86195062  0.97411457  0.71485944     0.01500
H895        H  0.85854359  0.95270171  0.83219213     0.14500
H896        H  0.89384772  0.04078804  0.68476969     0.14500
C897        C  0.84875924  0.95305080  0.66889508     0.36100
C898        C  0.90468401  0.04038840  0.84809713     0.36000
N899        N  0.83844646  0.93636859  0.63195828    -0.44200
N900        N  0.91629114  0.05697422  0.88493841    -0.44200
C901        C  0.94261240  0.85441180  0.76230332    -0.00600
C902        C  0.96683255  0.87909323  0.80234986    -0.12500
C903        C  0.01463642  0.90568112  0.80242053     0.01600
C904        C  0.04008020  0.90749127  0.76176978    -0.00700
C905        C  0.01603132  0.88006098  0.72290172    -0.12500
C906        C  0.96800361  0.85380998  0.72271278     0.01500
H907        H  0.94826931  0.88007146  0.83312621     0.14500
H908        H  0.03471944  0.88022300  0.69173824     0.14500
C909        C  0.94602567  0.82770491  0.68077314     0.36100
C910        C  0.03571572  0.93322645  0.84383735     0.36000
N911        N  0.92851644  0.80693780  0.64706614    -0.44200
N912        N  0.05222386  0.95540711  0.87703853    -0.44200
C913        C  0.77653117  0.63549192  0.15877869    -0.00600
C914        C  0.80825323  0.62050896  0.15792485    -0.12500
C915        C  0.85490656  0.65122559  0.16183847     0.01600
C916        C  0.87051426  0.69803917  0.16727452    -0.00700
C917        C  0.83891193  0.71314507  0.16713753    -0.12500
C918        C  0.79226374  0.68246572  0.16295851     0.01500
H919        H  0.79677457  0.58468170  0.15290798     0.14500
H920        H  0.85043506  0.74899070  0.17204114     0.14500
C921        C  0.76170138  0.70037437  0.16412697     0.36100
C922        C  0.88568141  0.63361917  0.15914415     0.36000
N923        N  0.73739684  0.71491573  0.16490383    -0.44200
N924        N  0.91011640  0.61927648  0.15690852    -0.44200
C925        C  0.75917112  0.69555538  0.88648044    -0.00600
C926        C  0.73431153  0.64855183  0.87689029    -0.12500
C927        C  0.71873601  0.61621615  0.91309250     0.01600
C928        C  0.72734335  0.63050941  0.96084825    -0.00700
C929        C  0.75437051  0.67765576  0.97022094    -0.12500
C930        C  0.77034787  0.70996451  0.93376503     0.01500
H931        H  0.72559814  0.63696660  0.84074759     0.14500
H932        H  0.76155981  0.68957751  0.00636855     0.14500
C933        C  0.79499252  0.75770401  0.94624700     0.36100
C934        C  0.69153630  0.56880276  0.89976448     0.36000
N935        N  0.81466200  0.79595093  0.95637377    -0.44200
N936        N  0.66972965  0.53084756  0.88891741    -0.44200
C937        C  0.44563377  0.48290163  0.98643089    -0.00600
C938        C  0.47793503  0.52943751  0.98737992    -0.12500
C939        C  0.52362545  0.54435066  0.99677247     0.01600
C940        C  0.53693365  0.51205312  0.00629354    -0.00700
C941        C  0.50418985  0.46535302  0.00525436    -0.12500
C942        C  0.45871608  0.45058308  0.99531303     0.01500
H943        H  0.46772345  0.55401135  0.97888079     0.14500
H944        H  0.51381441  0.44027958  0.01341905     0.14500
C945        C  0.42587493  0.40226646  0.99545149     0.36100
C946        C  0.55609624  0.59263973  0.99454164     0.36000
N947        N  0.39940151  0.36364381  0.99544576    -0.44200
N948        N  0.58211701  0.63131035  0.99258004    -0.44200
C949        C  0.74982733  0.47189945  0.08308608    -0.00600
C950        C  0.76433083  0.46464769  0.12681507    -0.12500
C951        C  0.79044218  0.44336140  0.13024385     0.01600
C952        C  0.80228052  0.42774315  0.08917026    -0.00700
C953        C  0.79057817  0.43806502  0.04523293    -0.12500
C954        C  0.76498329  0.46000381  0.04185586     0.01500
H955        H  0.75428048  0.47475337  0.15891981     0.14500
H956        H  0.79985632  0.42735292  0.01305302     0.14500
C957        C  0.75298740  0.46769966  0.99560157     0.36100
C958        C  0.80349568  0.43734508  0.17666999     0.36000
N959        N  0.74353710  0.47407353  0.95852778    -0.44200
N960        N  0.81404966  0.43283181  0.21396452    -0.44200
C961        C  0.56143159  0.37867406  0.09933628    -0.00600
C962        C  0.54126591  0.35579577  0.05694913    -0.12500
C963        C  0.51837296  0.30816634  0.05360403     0.01600
C964        C  0.51514733  0.28216746  0.09348217    -0.00700
C965        C  0.53207381  0.30515378  0.13680184    -0.12500
C966        C  0.55519376  0.35277091  0.14000127     0.01500
H967        H  0.54521741  0.37540923  0.02557887     0.14500
H968        H  0.52971259  0.28611349  0.16811392     0.14500
C969        C  0.57560684  0.37396948  0.18448221     0.36100
C970        C  0.50007328  0.28743106  0.00840083     0.36000
N971        N  0.59209657  0.39094472  0.22008002    -0.44200
N972        N  0.48546559  0.27093350  0.97210069    -0.44200
C973        C  0.55633333  0.59683492  0.29284569    -0.00600
C974        C  0.54267028  0.59926153  0.24692472    -0.12500
C975        C  0.55636047  0.58301287  0.20794117     0.01600
C976        C  0.58411441  0.56323005  0.21443072    -0.00700
C977        C  0.59447798  0.55765056  0.26091074    -0.12500
C978        C  0.58119153  0.57427817  0.29963376     0.01500
H979        H  0.52321531  0.61606520  0.24116264     0.14500
H980        H  0.61494447  0.54201573  0.26716326     0.14500
C981        C  0.59384112  0.56787666  0.34613164     0.36100
C982        C  0.54212372  0.58817533  0.16176713     0.36000
N983        N  0.60398970  0.56250094  0.38328159    -0.44200
N984        N  0.53064255  0.59237641  0.12481713    -0.44200
C985        C  0.62845402  0.73731404  0.55276578    -0.00600
C986        C  0.67590533  0.76151962  0.54439071    -0.12500
C987        C  0.70750611  0.77802158  0.58165897     0.01600
C988        C  0.69196718  0.76814655  0.62863856    -0.00700
C989        C  0.64458087  0.74578791  0.63713414    -0.12500
C990        C  0.61297368  0.73146085  0.59988870     0.01500
H991        H  0.68840614  0.76674887  0.50844124     0.14500
H992        H  0.63214369  0.73843227  0.67309367     0.14500
C993        C  0.56483096  0.70835283  0.61106984     0.36100
C994        C  0.75567310  0.80290879  0.57061557     0.36000
N995        N  0.52624279  0.69011898  0.62003777    -0.44200
N996        N  0.79429024  0.82333846  0.56176700    -0.44200
C997        C  0.62797398  0.78918249  0.34740829    -0.00600
C998        C  0.62890389  0.79761114  0.29922462    -0.12500
C999        C  0.65591067  0.84156969  0.28186075     0.01600
C1000       C  0.68249665  0.87786406  0.31335020    -0.00700
C1001       C  0.68079544  0.86942881  0.36157495    -0.12500
C1002       C  0.65344298  0.82564657  0.37890499     0.01500
H1003       H  0.60902827  0.76965076  0.27501932     0.14500
H1004       H  0.70037115  0.89732748  0.38594635     0.14500
C1005       C  0.65022118  0.81990967  0.42928844     0.36100
C1006       C  0.65691089  0.84761145  0.23156839     0.36000
N1007       N  0.64763360  0.81609825  0.46974955    -0.44200
N1008       N  0.65720174  0.85155122  0.19117242    -0.44200
C1009       C  0.51337484  0.54722040  0.49159947    -0.00600
C1010       C  0.50279062  0.51527579  0.45517662    -0.12500
C1011       C  0.48339853  0.46908480  0.46487323     0.01600
C1012       C  0.47446549  0.45441477  0.51186294    -0.00700
C1013       C  0.48556024  0.48645286  0.54834518    -0.12500
C1014       C  0.50486236  0.53266292  0.53864424     0.01500
H1015       H  0.50841477  0.52630179  0.41878825     0.14500
H1016       H  0.47999021  0.47540708  0.58479905     0.14500
C1017       C  0.51716307  0.56446180  0.57740834     0.36100
C1018       C  0.47123426  0.43740212  0.42603505     0.36000
N1019       N  0.52720588  0.58992244  0.60850346    -0.44200
N1020       N  0.46133311  0.41192573  0.39497742    -0.44200
C1021       C  0.46418073  0.75701137  0.42834624    -0.00600
C1022       C  0.46708039  0.78187607  0.38771978    -0.12500
C1023       C  0.44308489  0.80548806  0.38423234     0.01600
C1024       C  0.41587197  0.80520444  0.42220852    -0.00700
C1025       C  0.41509703  0.78247775  0.46363234    -0.12500
C1026       C  0.43802884  0.75806968  0.46680289     0.01500
H1027       H  0.48699947  0.78166846  0.35782907     0.14500
H1028       H  0.39396359  0.78123670  0.49303919     0.14500
C1029       C  0.43020130  0.73100511  0.50841622     0.36100
C1030       C  0.44666547  0.82923182  0.34117973     0.36000
N1031       N  0.42345088  0.70890771  0.54151005    -0.44200
N1032       N  0.44948353  0.84821314  0.30663166    -0.44200
C1033       C  0.37423899  0.57109424  0.42581521    -0.00600
C1034       C  0.35160531  0.56605230  0.46903806    -0.12500
C1035       C  0.30377726  0.54226070  0.47224130     0.01600
C1036       C  0.27701255  0.52251507  0.43143104    -0.00700
C1037       C  0.29973002  0.52415540  0.38910211    -0.12500
C1038       C  0.34759786  0.54804633  0.38593485     0.01500
H1039       H  0.37124938  0.58271856  0.50039862     0.14500
H1040       H  0.28009454  0.50822493  0.35753415     0.14500
C1041       C  0.36809284  0.54875969  0.34104125     0.36100
C1042       C  0.28367176  0.54058233  0.51766116     0.36000
N1043       N  0.38438336  0.54917488  0.30502083    -0.44200
N1044       N  0.26774171  0.53931042  0.55414378    -0.44200
loop_ 
_geom_bond_atom_site_label_1 
_geom_bond_atom_site_label_2 
_geom_bond_distance 
_geom_bond_site_symmetry_2 
_ccdc_geom_bond_type 
O1           C16   1.273       .  A
O1           Al9   1.921       .  S
C2           O12   1.274       .  A
C2            O3   1.266       .  A
C2         C1009   1.463       .  S
O3           Al5   1.863       .  S
O4            C6   1.253       .  A
O4           Al5   1.906       .  S
Al5          O13   1.906       .  S
Al5          O15   1.865       .  S
Al5          O14   1.790       .  S
C6           O19   1.256       .  A
C6          C973   1.497       .  S
O7           C17   1.262       .  A
O7           Al9   1.911       .  S
O8           C21   1.264       .  A
O8          Al18   1.912       .  S
Al9          O22   1.898       .  S
Al9          O19   1.927       .  S
Al9          O14   1.793       .  S
O10          C17   1.256       .  A
O10         Al18   1.881       .  S
O11          C20   1.254       .  A
O11         Al18   1.918       .  S
O12         Al18   1.927       .  S
O13          C20   1.252       .  A
O14         Al18   1.788       .  S
O15          C16   1.266       .  A
C16         C997   1.461       .  S
C17        C1033   1.494       .  S
C20         C985   1.496       .  S
C21          O22   1.259       .  A
C21        C1021   1.498       .  S
O23          C38   1.261       .  A
O23         Al31   1.862       .  S
C24          O34   1.261       .  A
C24          O25   1.261       .  A
C24         C940   1.464       .  S
O25         Al27   1.885       .  S
O26          C28   1.254       .  A
O26         Al27   1.903       .  S
Al27         O35   1.901       .  S
Al27         O37   1.892       .  S
Al27         O36   1.790       .  S
C28          O41   1.259       .  A
C28         C976   1.507       .  S
O29          C39   1.268       .  A
O29         Al31   1.913       .  S
O30          C43   1.267       .  A
O30         Al40   1.924       .  S
Al31         O44   1.921       .  S
Al31         O41   1.926       .  S
Al31         O36   1.788       .  S
O32          C39   1.265       .  A
O32         Al40   1.911       .  S
O33          C42   1.258   1_556  A
O33         Al40   1.918   1_556  S
O34         Al40   1.870       .  S
O35          C42   1.255       .  A
O36         Al40   1.786       .  S
O37          C38   1.264       .  A
C38         C913   1.466       .  S
C39         C961   1.483       .  S
C42         C928   1.505   1_554  S
C43          O44   1.264       .  A
C43         C949   1.499       .  S
O45          C60   1.269       .  A
O45         Al53   1.912       .  S
C46          O56   1.271       .  A
C46          O47   1.262       .  A
C46         C865   1.470       .  S
O47         Al49   1.849       .  S
O48          C50   1.256       .  A
O48         Al49   1.913       .  S
Al49         O57   1.905       .  S
Al49         O59   1.862       .  S
Al49         O58   1.791       .  S
C50          O63   1.259       .  A
C50         C988   1.493       .  S
O51          C61   1.260       .  A
O51         Al53   1.909       .  S
O52          C65   1.265       .  A
O52         Al62   1.912       .  S
Al53         O66   1.892       .  S
Al53         O63   1.923       .  S
Al53         O58   1.788       .  S
O54          C61   1.258       .  A
O54         Al62   1.894       .  S
O55          C64   1.258       .  A
O55         Al62   1.924       .  S
O56         Al62   1.917       .  S
O57          C64   1.254       .  A
O58         Al62   1.787       .  S
O59          C60   1.263       .  A
C60         C877   1.461       .  S
C61         C889   1.498       .  S
C64         C925   1.495       .  S
C65          O66   1.259       .  A
C65         C901   1.497       .  S
O67          C82   1.257       .  A
O67         Al75   1.892       .  S
C68          O78   1.265       .  A
C68          O69   1.275       .  A
C68         C937   1.448       .  S
O69         Al71   1.922       .  S
O70          C72   1.257       .  A
O70         Al71   1.893       .  S
Al71         O79   1.933       .  S
Al71         O81   1.923       .  S
Al71         O80   1.787       .  S
C72          O85   1.262       .  A
C72         C841   1.497       .  S
O73          C83   1.254       .  A
O73         Al75   1.919       .  S
O74          C87   1.263       .  A
O74         Al84   1.847       .  S
Al75         O88   1.922       .  S
Al75         O85   1.906       .  S
Al75         O80   1.790       .  S
O76          C83   1.250       .  A
O76         Al84   1.899       .  S
O77          C86   1.247   1_556  A
O77         Al84   1.887       .  S
O78         Al84   1.847       .  S
O79          C86   1.257   1_556  A
O80         Al84   1.791       .  S
O81          C82   1.266       .  A
C82         C856   1.504       .  S
C83         C805   1.489       .  S
C86         C817   1.495       .  S
C87          O88   1.274       .  A
C87         C829   1.448       .  S
O89         C104   1.258       .  A
O89         Al97   1.888       .  S
C90         O100   1.264       .  A
C90          O91   1.274       .  A
C90        C1012   1.464       .  S
O91         Al93   1.931       .  S
O92          C94   1.256       .  A
O92         Al93   1.881       .  S
Al93        O101   1.929       .  S
Al93        O103   1.918       .  S
Al93        O102   1.782       .  S
C94         O107   1.266       .  A
C94         C781   1.502       .  S
O95         C105   1.256       .  A
O95         Al97   1.926       .  S
O96         C109   1.265       .  A
O96        Al106   1.859       .  S
Al97        O110   1.935       .  S
Al97        O107   1.928       .  S
Al97        O102   1.786       .  S
O98         C105   1.251       .  A
O98        Al106   1.900       .  S
O99         C108   1.254       .  A
O99        Al106   1.908       .  S
O100       Al106   1.861       .  S
O101        C108   1.258       .  A
O102       Al106   1.789       .  S
O103        C104   1.264       .  A
C104        C796   1.501       .  S
C105        C808   1.490       .  S
C108        C772   1.498       .  S
C109        O110   1.277       .  A
C109        C757   1.467       .  S
O111        C126   1.256       .  A
O111       Al119   1.878       .  S
C112        O122   1.265       .  A
C112        O113   1.274       .  A
C112        C724   1.451       .  S
O113       Al115   1.922       .  S
O114        C116   1.258       .  A
O114       Al115   1.886       .  S
Al115       O123   1.921       .  S
Al115       O125   1.914       .  S
Al115       O124   1.787       .  S
C116        O129   1.265       .  A
C116        C748   1.503       .  S
O117        C127   1.256       .  A
O117       Al119   1.921       .  S
O118        C131   1.263       .  A
O118       Al128   1.857       .  S
Al119       O132   1.936       .  S
Al119       O129   1.925       .  S
Al119       O124   1.786       .  S
O120        C127   1.254       .  A
O120       Al128   1.913       .  S
O121        C130   1.253       .  A
O121       Al128   1.911       .  S
O122       Al128   1.859       .  S
O123        C130   1.256       .  A
O124       Al128   1.787       .  S
O125        C126   1.263       .  A
C126        C736   1.492       .  S
C127        C820   1.495       .  S
C130        C769   1.492       .  S
C131        O132   1.275       .  A
C131        C712   1.453       .  S
O133        C148   1.280       .  A
O133       Al141   1.942       .  S
C134        O144   1.280       .  A
C134        O135   1.270       .  A
C134        C661   1.452       .  S
O135       Al137   1.866       .  S
O136        C138   1.248       .  A
O136       Al137   1.894       .  S
Al137       O145   1.892       .  S
Al137       O147   1.862       .  S
Al137       O146   1.776       .  S
C138        O151   1.255       .  A
C138        C685   1.489       .  S
O139        C149   1.265       .  A
O139       Al141   1.921       .  S
O140        C153   1.264       .  A
O140       Al150   1.914       .  S
Al141       O154   1.880       .  S
Al141       O151   1.928       .  S
Al141       O146   1.777       .  S
O142        C149   1.256       .  A
O142       Al150   1.880       .  S
O143        C152   1.256       .  A
O143       Al150   1.941       .  S
O144       Al150   1.934       .  S
O145        C152   1.249       .  A
O146       Al150   1.774       .  S
O147        C148   1.269       .  A
C148        C709   1.453       .  S
C149        C697   1.498       .  S
C152        C673   1.497   1_554  S
C153        O154   1.257       .  A
C153        C964   1.494       .  S
O155        C170   1.278       .  A
O155       Al163   1.930   1_545  S
C156        O166   1.279       .  A
C156        O157   1.269       .  A
C156        C640   1.454       .  S
O157       Al159   1.855       .  S
O158        C160   1.246       .  A
O158       Al159   1.890       .  S
Al159       O167   1.879   1_565  S
Al159       O169   1.863   1_565  S
Al159       O168   1.784   1_565  S
C160        O173   1.252       .  A
C160        C625   1.482       .  S
O161        C171   1.264       .  A
O161       Al163   1.917       .  S
O162        C175   1.266       .  A
O162       Al172   1.928       .  S
Al163       O176   1.877   1_565  S
Al163       O173   1.919       .  S
Al163       O168   1.782   1_565  S
O164        C171   1.258       .  A
O164       Al172   1.891   1_565  S
O165        C174   1.256       .  A
O165       Al172   1.945       .  S
O166       Al172   1.934   1_565  S
O167        C174   1.247       .  A
O168       Al172   1.787       .  S
O169        C170   1.270       .  A
C170        C760   1.465       .  S
C171        C904   1.499       .  S
C174        C676   1.494       .  S
C175        O176   1.255       .  A
C175        C652   1.500       .  S
O177        C192   1.274       .  A
O177       Al185   1.928       .  S
C178        O188   1.277       .  A
C178        O179   1.268       .  A
C178        C589   1.479       .  S
O179       Al181   1.856       .  S
O180        C182   1.251       .  A
O180       Al181   1.902       .  S
Al181       O189   1.888       .  S
Al181       O191   1.852       .  S
Al181       O190   1.786       .  S
C182        O195   1.257       .  A
C182        C628   1.494       .  S
O183        C193   1.262       .  A
O183       Al185   1.909       .  S
O184        C197   1.265       .  A
O184       Al194   1.926       .  S
Al185       O198   1.886       .  S
Al185       O195   1.926       .  S
Al185       O190   1.782       .  S
O186        C193   1.259       .  A
O186       Al194   1.892       .  S
O187        C196   1.256       .  A
O187       Al194   1.928       .  S
O188       Al194   1.937       .  S
O189        C196   1.248       .  A
O190       Al194   1.781       .  S
O191        C192   1.263       .  A
C192        C601   1.447       .  S
C193        C613   1.499       .  S
C196        C688   1.483       .  S
C197        O198   1.259       .  A
C197       C1024   1.496       .  S
O199        C214   1.256       .  A
O199       Al207   1.888       .  S
C200        O210   1.264       .  A
C200        O201   1.272       .  A
C200        C664   1.453       .  S
O201       Al203   1.929       .  S
O202        C204   1.259       .  A
O202       Al203   1.886       .  S
Al203       O211   1.918       .  S
Al203       O213   1.916       .  S
Al203       O212   1.785       .  S
C204        O217   1.264       .  A
C204        C577   1.497       .  S
O205        C215   1.257       .  A
O205       Al207   1.924       .  S
O206        C219   1.264       .  A
O206       Al216   1.845       .  S
Al207       O220   1.921       .  S
Al207       O217   1.914       .  S
Al207       O212   1.785       .  S
O208        C215   1.252       .  A
O208       Al216   1.899       .  S
O209        C218   1.253       .  A
O209       Al216   1.905       .  S
O210       Al216   1.855       .  S
O211        C218   1.256       .  A
O212       Al216   1.789       .  S
O213        C214   1.263       .  A
C214        C844   1.499       .  S
C215        C565   1.491       .  S
C218        C553   1.482   1_556  S
C219        O220   1.273       .  A
C219        C868   1.470       .  S
O221        C236   1.256       .  A
O221       Al229   1.880       .  S
C222        O232   1.265       .  A
C222        O223   1.278       .  A
C222       C1000   1.464       .  S
O223       Al225   1.935       .  S
O224        C226   1.257       .  A
O224       Al225   1.877       .  S
Al225       O233   1.926   1_565  S
Al225       O235   1.927   1_565  S
Al225       O234   1.778   1_565  S
C226        O239   1.266       .  A
C226        C541   1.497       .  S
O227        C237   1.257       .  A
O227       Al229   1.927   1_565  S
O228        C241   1.264       .  A
O228       Al238   1.849   1_545  S
Al229       O242   1.933       .  S
Al229       O239   1.928   1_545  S
Al229       O234   1.781       .  S
O230        C237   1.252       .  A
O230       Al238   1.896       .  S
O231        C240   1.254       .  A
O231       Al238   1.909   1_545  S
O232       Al238   1.861       .  S
O233        C240   1.258       .  A
O234       Al238   1.788   1_545  S
O235        C236   1.265       .  A
C236        C745   1.501       .  S
C237        C556   1.494       .  S
C240        C532   1.495       .  S
C241        O242   1.277       .  A
C241        C517   1.457       .  S
O243        C258   1.257       .  A
O243       Al251   1.889       .  S
C244        O254   1.261       .  A
C244        O245   1.271       .  A
C244        C604   1.445       .  S
O245       Al247   1.923       .  S
O246        C248   1.257       .  A
O246       Al247   1.884       .  S
Al247       O255   1.919       .  S
Al247       O257   1.912       .  S
Al247       O256   1.787       .  S
C248        O261   1.263       .  A
C248        C793   1.499       .  S
O249        C259   1.258       .  A
O249       Al251   1.924       .  S
O250        C263   1.264       .  A
O250       Al260   1.855       .  S
Al251       O264   1.919       .  S
Al251       O261   1.920       .  S
Al251       O256   1.787       .  S
O252        C259   1.252       .  A
O252       Al260   1.899       .  S
O253        C262   1.252       .  A
O253       Al260   1.907       .  S
O254       Al260   1.850       .  S
O255        C262   1.256       .  A
O256       Al260   1.790       .  S
O257        C258   1.264       .  A
C258        C505   1.498       .  S
C259        C568   1.489       .  S
C262        C529   1.486       .  S
C263        O264   1.273       .  A
C263        C496   1.454       .  S
O265        C280   1.271       .  A
O265       Al273   1.923       .  S
C266        O276   1.271       .  A
C266        O267   1.264       .  A
C266        C460   1.472       .  S
O267       Al269   1.854       .  S
O268        C270   1.255       .  A
O268       Al269   1.908       .  S
Al269       O277   1.903       .  S
Al269       O279   1.857       .  S
Al269       O278   1.788       .  S
C270        O283   1.257       .  A
C270        C481   1.479       .  S
O271        C281   1.262       .  A
O271       Al273   1.911       .  S
O272        C285   1.264       .  A
O272       Al282   1.917       .  S
Al273       O286   1.883       .  S
Al273       O283   1.916       .  S
Al273       O278   1.784       .  S
O274        C281   1.259       .  A
O274       Al282   1.894       .  S
O275        C284   1.259       .  A
O275       Al282   1.923       .  S
O276       Al282   1.919       .  S
O277        C284   1.254       .  A
O278       Al282   1.783       .  S
O279        C280   1.262       .  A
C280        C721   1.452       .  S
C281        C616   1.495       .  S
C284        C472   1.490       .  S
C285        O286   1.258       .  A
C285       C1036   1.496       .  S
O287        C302   1.276       .  A
O287       Al295   1.919       .  S
C288        O298   1.275       .  A
C288        O289   1.266       .  A
C288        C520   1.455       .  S
O289       Al291   1.854       .  S
O290        C292   1.249   1_554  A
O290       Al291   1.897       .  S
Al291       O299   1.886       .  S
Al291       O301   1.860       .  S
Al291       O300   1.790       .  S
C292        O305   1.255   1_556  A
C292        C436   1.496       .  S
O293        C303   1.264       .  A
O293       Al295   1.905       .  S
O294        C307   1.263       .  A
O294       Al304   1.917       .  S
Al295       O308   1.897       .  S
Al295       O305   1.927       .  S
Al295       O300   1.785       .  S
O296        C303   1.258       .  A
O296       Al304   1.893       .  S
O297        C306   1.257       .  A
O297       Al304   1.932       .  S
O298       Al304   1.924       .  S
O299        C306   1.249       .  A
O300       Al304   1.790       .  S
O301        C302   1.266       .  A
C302        C448   1.472       .  S
C303        C700   1.496       .  S
C306        C484   1.498       .  S
C307        O308   1.259       .  A
C307        C952   1.505       .  S
O309        C324   1.273       .  A
O309       Al317   1.921   1_455  S
C310        O320   1.273       .  A
C310        O311   1.264       .  A
C310        C493   1.453       .  S
O311       Al313   1.851       .  S
O312        C314   1.253       .  A
O312       Al313   1.907       .  S
Al313       O321   1.900   1_655  S
Al313       O323   1.849   1_655  S
Al313       O322   1.789       .  S
C314        O327   1.257       .  A
C314        C433   1.495       .  S
O315        C325   1.263       .  A
O315       Al317   1.914       .  S
O316        C329   1.263       .  A
O316       Al326   1.909   1_455  S
Al317       O330   1.892   1_655  S
Al317       O327   1.925       .  S
Al317       O322   1.789       .  S
O318        C325   1.259       .  A
O318       Al326   1.890       .  S
O319        C328   1.257       .  A
O319       Al326   1.926   1_455  S
O320       Al326   1.920       .  S
O321        C328   1.251       .  A
O322       Al326   1.784       .  S
O323        C324   1.261       .  A
C324        C832   1.447       .  S
C325        C892   1.500       .  S
C328        C469   1.491       .  S
C329        O330   1.257       .  A
C329        C649   1.497       .  S
O331        C346   1.259       .  A
O331       Al339   1.889       .  S
C332        O342   1.265       .  A
C332        O333   1.277       .  A
C332        C445   1.470       .  S
O333       Al335   1.922       .  S
O334        C336   1.256       .  A
O334       Al335   1.878       .  S
Al335       O343   1.920       .  S
Al335       O345   1.907       .  S
Al335       O344   1.778       .  S
C336        O349   1.267       .  A
C336        C853   1.504       .  S
O337        C347   1.259       .  A
O337       Al339   1.946       .  S
O338        C351   1.266       .  A
O338       Al348   1.853       .  S
Al339       O352   1.939       .  S
Al339       O349   1.933       .  S
Al339       O344   1.781       .  S
O340        C347   1.250       .  A
O340       Al348   1.887       .  S
O341        C350   1.251   1_556  A
O341       Al348   1.895       .  S
O342       Al348   1.859       .  S
O343        C350   1.255   1_556  A
O344       Al348   1.787       .  S
O345        C346   1.261       .  A
C346        C580   1.497       .  S
C347        C421   1.493       .  S
C350        C412   1.486       .  S
C351        O352   1.278       .  A
C351        C637   1.455       .  S
O353        C368   1.264       .  A
O353       Al361   1.910   1_455  S
C354        O364   1.265       .  A
C354        O355   1.262       .  A
C354        C916   1.465       .  S
O355       Al357   1.865       .  S
O356        C358   1.261       .  A
O356       Al357   1.909       .  S
Al357       O365   1.899   1_655  S
Al357       O367   1.911   1_655  S
Al357       O366   1.790       .  S
C358        O371   1.267       .  A
C358        C544   1.491       .  S
O359        C369   1.257       .  A
O359       Al361   1.914       .  S
O360        C373   1.264       .  A
O360       Al370   1.890   1_455  S
Al361       O374   1.875   1_655  S
Al361       O371   1.923       .  S
Al361       O366   1.787       .  S
O362        C369   1.254       .  A
O362       Al370   1.899       .  S
O363        C372   1.252       .  A
O363       Al370   1.898   1_455  S
O364       Al370   1.894       .  S
O365        C372   1.254       .  A
O366       Al370   1.794       .  S
O367        C368   1.266       .  A
C368        C733   1.485       .  S
C369        C397   1.503       .  S
C372        C409   1.496       .  S
C373        O374   1.261       .  A
C373        C592   1.470       .  S
O375        C390   1.260       .  A
O375       Al383   1.902       .  S
C376        O386   1.269       .  A
C376        O377   1.277       .  A
C376        C457   1.471       .  S
O377       Al379   1.924       .  S
O378        C380   1.256       .  A
O378       Al379   1.888       .  S
Al379       O387   1.926       .  S
Al379       O389   1.910       .  S
Al379       O388   1.783       .  S
C380        O393   1.262       .  A
C380        C508   1.498       .  S
O381        C391   1.256       .  A
O381       Al383   1.944       .  S
O382        C395   1.270       .  A
O382       Al392   1.860       .  S
Al383       O396   1.919       .  S
Al383       O393   1.909       .  S
Al383       O388   1.786       .  S
O384        C391   1.248       .  A
O384       Al392   1.886       .  S
O385        C394   1.247       .  A
O385       Al392   1.891       .  S
O386       Al392   1.854       .  S
O387        C394   1.253       .  A
O388       Al392   1.783       .  S
O389        C390   1.265       .  A
C390        C784   1.500       .  S
C391        C424   1.498       .  S
C394        C400   1.494       .  S
C395        O396   1.275       .  A
C395        C880   1.460       .  S
C397        C398   1.412       .  A
C397        C402   1.419       .  A
C398        C399   1.410       .  A
C398        H403   1.084       .  S
C399        C400   1.412       .  A
C399        C406   1.443       .  S
C400        C401   1.405       .  A
C401        C402   1.405       .  A
C401        H404   1.085       .  S
C402        C405   1.445       .  S
C405        N407   1.157       .  T
C406        N408   1.157       .  T
C409        C410   1.411       .  A
C409        C414   1.418       .  A
C410        C411   1.408       .  A
C410        H415   1.085       .  S
C411        C412   1.411       .  A
C411        C418   1.444       .  S
C412        C413   1.403       .  A
C413        C414   1.399       .  A
C413        H416   1.086   1_554  S
C414        C417   1.445       .  S
C417        N419   1.157   1_455  T
C418        N420   1.157       .  T
C421        C422   1.403       .  A
C421        C426   1.414       .  A
C422        C423   1.396   1_455  A
C422        H427   1.086       .  S
C423        C424   1.417       .  A
C423        C430   1.447       .  S
C424        C425   1.411       .  A
C425        C426   1.419   1_655  A
C425        H428   1.084       .  S
C426        C429   1.442       .  S
C429        N431   1.157       .  T
C430        N432   1.157       .  T
C433        C434   1.408       .  A
C433        C438   1.413       .  A
C434        C435   1.408       .  A
C434        H439   1.085       .  S
C435        C436   1.413       .  A
C435        C442   1.443       .  S
C436        C437   1.409       .  A
C437        C438   1.409       .  A
C437        H440   1.085   1_556  S
C438        C441   1.444       .  S
C441        N443   1.157       .  T
C442        N444   1.157       .  T
C445        C446   1.400   1_556  A
C445        C450   1.416   1_455  A
C446        C447   1.387       .  A
C446        H451   1.085       .  S
C447        C448   1.415   1_455  A
C447        C454   1.442       .  S
C448        C449   1.403   1_554  A
C449        C450   1.393       .  A
C449        H452   1.085       .  S
C450        C453   1.445       .  S
C453        N455   1.157       .  T
C454        N456   1.156       .  T
C457        C458   1.406       .  A
C457        C462   1.411       .  A
C458        C459   1.389   1_655  A
C458        H463   1.085   1_655  S
C459        C460   1.412       .  A
C459        C466   1.446       .  S
C460        C461   1.408   1_455  A
C461        C462   1.392       .  A
C461        H464   1.085       .  S
C462        C465   1.445       .  S
C465        N467   1.157       .  T
C466        N468   1.157       .  T
C469        C470   1.408       .  A
C469        C474   1.411       .  A
C470        C471   1.406       .  A
C470        H475   1.085       .  S
C471        C472   1.411       .  A
C471        C478   1.444       .  S
C472        C473   1.409       .  A
C473        C474   1.408       .  A
C473        H476   1.085       .  S
C474        C477   1.443       .  S
C477        N479   1.157       .  T
C478        N480   1.157       .  T
C481        C482   1.405   1_455  A
C481        C486   1.406       .  A
C482        C483   1.410       .  A
C482        H487   1.085       .  S
C483        C484   1.416       .  A
C483        C490   1.442       .  S
C484        C485   1.411   1_655  A
C485        C486   1.400       .  A
C485        H488   1.084       .  S
C486        C489   1.445       .  S
C489        N491   1.157       .  T
C490        N492   1.157       .  T
C493        C494   1.401       .  A
C493        C498   1.409       .  A
C494        C495   1.391       .  A
C494        H499   1.085       .  S
C495        C496   1.409       .  A
C495        C502   1.445       .  S
C496        C497   1.400       .  A
C497        C498   1.388       .  A
C497        H500   1.085       .  S
C498        C501   1.446       .  S
C501        N503   1.157       .  T
C502        N504   1.157       .  T
C505        C506   1.405       .  A
C505        C510   1.421       .  A
C506        C507   1.402       .  A
C506        H511   1.085       .  S
C507        C508   1.421       .  A
C507        C514   1.444       .  S
C508        C509   1.405       .  A
C509        C510   1.403       .  A
C509        H512   1.085       .  S
C510        C513   1.444       .  S
C513        N515   1.157       .  T
C514        N516   1.157       .  T
C517        C518   1.401       .  A
C517        C522   1.411       .  A
C518        C519   1.391       .  A
C518        H523   1.086       .  S
C519        C520   1.408       .  A
C519        C526   1.445       .  S
C520        C521   1.399       .  A
C521        C522   1.391       .  A
C521        H524   1.085       .  S
C522        C525   1.445       .  S
C525        N527   1.157       .  T
C526        N528   1.157       .  T
C529        C530   1.406       .  A
C529        C534   1.410       .  A
C530        C531   1.410       .  A
C530        H535   1.084       .  S
C531        C532   1.415       .  A
C531        C538   1.443       .  S
C532        C533   1.409       .  A
C533        C534   1.404       .  A
C533        H536   1.084       .  S
C534        C537   1.444       .  S
C537        N539   1.157       .  T
C538        N540   1.157       .  T
C541        C542   1.412       .  A
C541        C546   1.413       .  A
C542        C543   1.402       .  A
C542        H547   1.084       .  S
C543        C544   1.410       .  A
C543        C550   1.444       .  S
C544        C545   1.411       .  A
C545        C546   1.406       .  A
C545        H548   1.085       .  S
C546        C549   1.444       .  S
C549        N551   1.157       .  T
C550        N552   1.157       .  T
C553        C554   1.407       .  A
C553        C558   1.407       .  A
C554        C555   1.410       .  A
C554        H559   1.084   1_554  S
C555        C556   1.415       .  A
C555        C562   1.443       .  S
C556        C557   1.408       .  A
C557        C558   1.400       .  A
C557        H560   1.084       .  S
C558        C561   1.445       .  S
C561        N563   1.157       .  T
C562        N564   1.157       .  T
C565        C566   1.404       .  A
C565        C570   1.417   1_565  A
C566        C567   1.407       .  A
C566        H571   1.084       .  S
C567        C568   1.416   1_565  A
C567        C574   1.444       .  S
C568        C569   1.403       .  A
C569        C570   1.407       .  A
C569        H572   1.084       .  S
C570        C573   1.444       .  S
C573        N575   1.157       .  T
C574        N576   1.157       .  T
C577        C578   1.410       .  A
C577        C582   1.415       .  A
C578        C579   1.403       .  A
C578        H583   1.085       .  S
C579        C580   1.416       .  A
C579        C586   1.445   1_556  S
C580        C581   1.410       .  A
C581        C582   1.402       .  A
C581        H584   1.085       .  S
C582        C585   1.444       .  S
C585        N587   1.157       .  T
C586        N588   1.158       .  T
C589        C590   1.409       .  A
C589        C594   1.414       .  A
C590        C591   1.392       .  A
C590        H595   1.084       .  S
C591        C592   1.409       .  A
C591        C598   1.445       .  S
C592        C593   1.405       .  A
C593        C594   1.395       .  A
C593        H596   1.085       .  S
C594        C597   1.445       .  S
C597        N599   1.157       .  T
C598        N600   1.157       .  T
C601        C602   1.394       .  A
C601        C606   1.412       .  A
C602        C603   1.389   1_565  A
C602        H607   1.085       .  S
C603        C604   1.410       .  A
C603        C610   1.445       .  S
C604        C605   1.394       .  A
C605        C606   1.391   1_545  A
C605        H608   1.085       .  S
C606        C609   1.445       .  S
C609        N611   1.157       .  T
C610        N612   1.157       .  T
C613        C614   1.410       .  A
C613        C618   1.418       .  A
C614        C615   1.404       .  A
C614        H619   1.085       .  S
C615        C616   1.414       .  A
C615        C622   1.444       .  S
C616        C617   1.408       .  A
C617        C618   1.404       .  A
C617        H620   1.085       .  S
C618        C621   1.444       .  S
C621        N623   1.157       .  T
C622        N624   1.157       .  T
C625        C626   1.400       .  A
C625        C630   1.412       .  A
C626        C627   1.404       .  A
C626        H631   1.085       .  S
C627        C628   1.420       .  A
C627        C634   1.445       .  S
C628        C629   1.406       .  A
C629        C630   1.407       .  A
C629        H632   1.084       .  S
C630        C633   1.444       .  S
C633        N635   1.157       .  T
C634        N636   1.157       .  T
C637        C638   1.400       .  A
C637        C642   1.409       .  A
C638        C639   1.392       .  A
C638        H643   1.086       .  S
C639        C640   1.408       .  A
C639        C646   1.445       .  S
C640        C641   1.400       .  A
C641        C642   1.393       .  A
C641        H644   1.086       .  S
C642        C645   1.445       .  S
C645        N647   1.157       .  T
C646        N648   1.157       .  T
C649        C650   1.402       .  A
C649        C654   1.420       .  A
C650        C651   1.399       .  A
C650        H655   1.085       .  S
C651        C652   1.424       .  A
C651        C658   1.446       .  S
C652        C653   1.406       .  A
C653        C654   1.408       .  A
C653        H656   1.084       .  S
C654        C657   1.444       .  S
C657        N659   1.157       .  T
C658        N660   1.157       .  T
C661        C662   1.395   1_554  A
C661        C666   1.412       .  A
C662        C663   1.388   1_545  A
C662        H667   1.085       .  S
C663        C664   1.410       .  A
C663        C670   1.445       .  S
C664        C665   1.399   1_556  A
C665        C666   1.395   1_565  A
C665        H668   1.085       .  S
C666        C669   1.445       .  S
C669        N671   1.157       .  T
C670        N672   1.157       .  T
C673        C674   1.411       .  A
C673        C678   1.417       .  A
C674        C675   1.418       .  A
C674        H679   1.084       .  S
C675        C676   1.414       .  A
C675        C682   1.442       .  S
C676        C677   1.403       .  A
C677        C678   1.396       .  A
C677        H680   1.086   1_545  S
C678        C681   1.446       .  S
C681        N683   1.157   1_545  T
C682        N684   1.157       .  T
C685        C686   1.409   1_545  A
C685        C690   1.411       .  A
C686        C687   1.404       .  A
C686        H691   1.085       .  S
C687        C688   1.408       .  A
C687        C694   1.444       .  S
C688        C689   1.408   1_565  A
C689        C690   1.407       .  A
C689        H692   1.085       .  S
C690        C693   1.444       .  S
C693        N695   1.157       .  T
C694        N696   1.157       .  T
C697        C698   1.406       .  A
C697        C702   1.422       .  A
C698        C699   1.405       .  A
C698        H703   1.084       .  S
C699        C700   1.420       .  A
C699        C706   1.444       .  S
C700        C701   1.404       .  A
C701        C702   1.400       .  A
C701        H704   1.085       .  S
C702        C705   1.445       .  S
C705        N707   1.157   1_554  T
C706        N708   1.157       .  T
C709        C710   1.394       .  A
C709        C714   1.412       .  A
C710        C711   1.393       .  A
C710        H715   1.085       .  S
C711        C712   1.412       .  A
C711        C718   1.444       .  S
C712        C713   1.395       .  A
C713        C714   1.394       .  A
C713        H716   1.085       .  S
C714        C717   1.444       .  S
C717        N719   1.157       .  T
C718        N720   1.157       .  T
C721        C722   1.397       .  A
C721        C726   1.411       .  A
C722        C723   1.391       .  A
C722        H727   1.085       .  S
C723        C724   1.411       .  A
C723        C730   1.445       .  S
C724        C725   1.396       .  A
C725        C726   1.390       .  A
C725        H728   1.085       .  S
C726        C729   1.445       .  S
C729        N731   1.157       .  T
C730        N732   1.157       .  T
C733        C734   1.408       .  A
C733        C738   1.410       .  A
C734        C735   1.402   1_565  A
C734        H739   1.085       .  S
C735        C736   1.413       .  A
C735        C742   1.444       .  S
C736        C737   1.411       .  A
C737        C738   1.401   1_545  A
C737        H740   1.084       .  S
C738        C741   1.444       .  S
C741        N743   1.157       .  T
C742        N744   1.157       .  T
C745        C746   1.412       .  A
C745        C750   1.413       .  A
C746        C747   1.404   1_655  A
C746        H751   1.085       .  S
C747        C748   1.415       .  A
C747        C754   1.444       .  S
C748        C749   1.413       .  A
C749        C750   1.406   1_455  A
C749        H752   1.084       .  S
C750        C753   1.444       .  S
C753        N755   1.157       .  T
C754        N756   1.157       .  T
C757        C758   1.402       .  A
C757        C762   1.413       .  A
C758        C759   1.393       .  A
C758        H763   1.085       .  S
C759        C760   1.410       .  A
C759        C766   1.445       .  S
C760        C761   1.402       .  A
C761        C762   1.394       .  A
C761        H764   1.085       .  S
C762        C765   1.445       .  S
C765        N767   1.157       .  T
C766        N768   1.157       .  T
C769        C770   1.407       .  A
C769        C774   1.411       .  A
C770        C771   1.410       .  A
C770        H775   1.085       .  S
C771        C772   1.414       .  A
C771        C778   1.443       .  S
C772        C773   1.409       .  A
C773        C774   1.408       .  A
C773        H776   1.085       .  S
C774        C777   1.444       .  S
C777        N779   1.157       .  T
C778        N780   1.157       .  T
C781        C782   1.407       .  A
C781        C786   1.423       .  A
C782        C783   1.407       .  A
C782        H787   1.085       .  S
C783        C784   1.420       .  A
C783        C790   1.444       .  S
C784        C785   1.404       .  A
C785        C786   1.402       .  A
C785        H788   1.085       .  S
C786        C789   1.445       .  S
C789        N791   1.158       .  T
C790        N792   1.157       .  T
C793        C794   1.410       .  A
C793        C798   1.414       .  A
C794        C795   1.403       .  A
C794        H799   1.085       .  S
C795        C796   1.416       .  A
C795        C802   1.444       .  S
C796        C797   1.413       .  A
C797        C798   1.406       .  A
C797        H800   1.085       .  S
C798        C801   1.444       .  S
C801        N803   1.157       .  T
C802        N804   1.157       .  T
C805        C806   1.402       .  A
C805        C810   1.416       .  A
C806        C807   1.405       .  A
C806        H811   1.085       .  S
C807        C808   1.416       .  A
C807        C814   1.444       .  S
C808        C809   1.404       .  A
C809        C810   1.408       .  A
C809        H812   1.084       .  S
C810        C813   1.444       .  S
C813        N815   1.157       .  T
C814        N816   1.157       .  T
C817        C818   1.409       .  A
C817        C822   1.411       .  A
C818        C819   1.408       .  A
C818        H823   1.085   1_554  S
C819        C820   1.413       .  A
C819        C826   1.444       .  S
C820        C821   1.409       .  A
C821        C822   1.409       .  A
C821        H824   1.085       .  S
C822        C825   1.443       .  S
C825        N827   1.157       .  T
C826        N828   1.157       .  T
C829        C830   1.394       .  A
C829        C834   1.412       .  A
C830        C831   1.389       .  A
C830        H835   1.085       .  S
C831        C832   1.412       .  A
C831        C838   1.443       .  S
C832        C833   1.393       .  A
C833        C834   1.387       .  A
C833        H836   1.086       .  S
C834        C837   1.443       .  S
C837        N839   1.156       .  T
C838        N840   1.156       .  T
C841        C842   1.405       .  A
C841        C846   1.419       .  A
C842        C843   1.402       .  A
C842        H847   1.085       .  S
C843        C844   1.421       .  A
C843        C850   1.444       .  S
C844        C845   1.406       .  A
C845        C846   1.405       .  A
C845        H848   1.084       .  S
C846        C849   1.444       .  S
C849        N851   1.157   1_556  T
C850        N852   1.157       .  T
C853        C854   1.406       .  A
C853        C858   1.424       .  A
C854        C855   1.408       .  A
C854        H859   1.084       .  S
C855        C856   1.423       .  A
C855        C862   1.444       .  S
C856        C857   1.403       .  A
C857        C858   1.403       .  A
C857        H860   1.084       .  S
C858        C861   1.445       .  S
C861        N863   1.157   1_556  T
C862        N864   1.158       .  T
C865        C866   1.407       .  A
C865        C870   1.410       .  A
C866        C867   1.390       .  A
C866        H871   1.085       .  S
C867        C868   1.411       .  A
C867        C874   1.445       .  S
C868        C869   1.408       .  A
C869        C870   1.389       .  A
C869        H872   1.085       .  S
C870        C873   1.446       .  S
C873        N875   1.157       .  T
C874        N876   1.157       .  T
C877        C878   1.404       .  A
C877        C882   1.409       .  A
C878        C879   1.392       .  A
C878        H883   1.085       .  S
C879        C880   1.410       .  A
C879        C886   1.445       .  S
C880        C881   1.402       .  A
C881        C882   1.388       .  A
C881        H884   1.086       .  S
C882        C885   1.444       .  S
C885        N887   1.157       .  T
C886        N888   1.157       .  T
C889        C890   1.409       .  A
C889        C894   1.415       .  A
C890        C891   1.404   1_565  A
C890        H895   1.085       .  S
C891        C892   1.417       .  A
C891        C898   1.444       .  S
C892        C893   1.411       .  A
C893        C894   1.404   1_545  A
C893        H896   1.085       .  S
C894        C897   1.445       .  S
C897        N899   1.157       .  T
C898        N900   1.157       .  T
C901        C902   1.404       .  A
C901        C906   1.419       .  A
C902        C903   1.401   1_655  A
C902        H907   1.085       .  S
C903        C904   1.421       .  A
C903        C910   1.445       .  S
C904        C905   1.407       .  A
C905        C906   1.406   1_455  A
C905        H908   1.085       .  S
C906        C909   1.445       .  S
C909        N911   1.158       .  T
C910        N912   1.157       .  T
C913        C914   1.406       .  A
C913        C918   1.411       .  A
C914        C915   1.391       .  A
C914        H919   1.085       .  S
C915        C916   1.410       .  A
C915        C922   1.445       .  S
C916        C917   1.405       .  A
C917        C918   1.391       .  A
C917        H920   1.085       .  S
C918        C921   1.445       .  S
C921        N923   1.157       .  T
C922        N924   1.157       .  T
C925        C926   1.405       .  A
C925        C930   1.413       .  A
C926        C927   1.406       .  A
C926        H931   1.085       .  S
C927        C928   1.419       .  A
C927        C934   1.444       .  S
C928        C929   1.412       .  A
C929        C930   1.410       .  A
C929        H932   1.084   1_556  S
C930        C933   1.444       .  S
C933        N935   1.157       .  T
C934        N936   1.157       .  T
C937        C938   1.397       .  A
C937        C942   1.405       .  A
C938        C939   1.392       .  A
C938        H943   1.085       .  S
C939        C940   1.413   1_556  A
C939        C946   1.445       .  S
C940        C941   1.405       .  A
C941        C942   1.389   1_554  A
C941        H944   1.085       .  S
C942        C945   1.446       .  S
C945        N947   1.157       .  T
C946        N948   1.157       .  T
C949        C950   1.409       .  A
C949        C954   1.413       .  A
C950        C951   1.405       .  A
C950        H955   1.085       .  S
C951        C952   1.417       .  A
C951        C958   1.444       .  S
C952        C953   1.413       .  A
C953        C954   1.408       .  A
C953        H956   1.084       .  S
C954        C957   1.444   1_554  S
C957        N959   1.157       .  T
C958        N960   1.157       .  T
C961        C962   1.407       .  A
C961        C966   1.409       .  A
C962        C963   1.402       .  A
C962        H967   1.085       .  S
C963        C964   1.414       .  A
C963        C970   1.444       .  S
C964        C965   1.412       .  A
C965        C966   1.401       .  A
C965        H968   1.085       .  S
C966        C969   1.445       .  S
C969        N971   1.157       .  T
C970        N972   1.157   1_554  T
C973        C974   1.405       .  A
C973        C978   1.414       .  A
C974        C975   1.412       .  A
C974        H979   1.085       .  S
C975        C976   1.422       .  A
C975        C982   1.444       .  S
C976        C977   1.408       .  A
C977        C978   1.406       .  A
C977        H980   1.084       .  S
C978        C981   1.444       .  S
C981        N983   1.157       .  T
C982        N984   1.158       .  T
C985        C986   1.408       .  A
C985        C990   1.414       .  A
C986        C987   1.407       .  A
C986        H991   1.085       .  S
C987        C988   1.412       .  A
C987        C994   1.443       .  S
C988        C989   1.407       .  A
C989        C990   1.408       .  A
C989        H992   1.085       .  S
C990        C993   1.444       .  S
C993        N995   1.157       .  T
C994        N996   1.157       .  T
C997        C998   1.399       .  A
C997       C1002   1.411       .  A
C998        C999   1.394       .  A
C998       H1003   1.085       .  S
C999       C1000   1.415       .  A
C999       C1006   1.444       .  S
C1000      C1001   1.398       .  A
C1001      C1002   1.390       .  A
C1001      H1004   1.085       .  S
C1002      C1005   1.443       .  S
C1005      N1007   1.156       .  T
C1006      N1008   1.157       .  T
C1009      C1010   1.404       .  A
C1009      C1014   1.407       .  A
C1010      C1011   1.393       .  A
C1010      H1015   1.086       .  S
C1011      C1012   1.407       .  A
C1011      C1018   1.444       .  S
C1012      C1013   1.406       .  A
C1013      C1014   1.394       .  A
C1013      H1016   1.088       .  S
C1014      C1017   1.445       .  S
C1017      N1019   1.157       .  T
C1018      N1020   1.157       .  T
C1021      C1022   1.412       .  A
C1021      C1026   1.415       .  A
C1022      C1023   1.409       .  A
C1022      H1027   1.085       .  S
C1023      C1024   1.413       .  A
C1023      C1030   1.443       .  S
C1024      C1025   1.408       .  A
C1025      C1026   1.401       .  A
C1025      H1028   1.085       .  S
C1026      C1029   1.445       .  S
C1029      N1031   1.157       .  T
C1030      N1032   1.157       .  T
C1033      C1034   1.410       .  A
C1033      C1038   1.413       .  A
C1034      C1035   1.402       .  A
C1034      H1039   1.084       .  S
C1035      C1036   1.415       .  A
C1035      C1042   1.445       .  S
C1036      C1037   1.411       .  A
C1037      C1038   1.403       .  A
C1037      H1040   1.084       .  S
C1038      C1041   1.444       .  S
C1041      N1043   1.157       .  T
C1042      N1044   1.157       .  T
