geometry optimzed in LAMMPS
_audit_creation_date              2020-11-30 
_audit_creation_method            'lammps2cif' 
_symmetry_space_group_name_H-M    'P1' 
_symmetry_Int_Tables_number       1 
_symmetry_cell_setting            triclinic 
loop_ 
_symmetry_equiv_pos_as_xyz 
  x,y,z 
_cell_length_a                    40.6594959 
_cell_length_b                    40.4916548791557 
_cell_length_c                    30.57398158625587 
_cell_angle_alpha                 90.65029426940029 
_cell_angle_beta                  89.41001923962571 
_cell_angle_gamma                 120.08574962879207 
loop_ 
_atom_site_label 
_atom_site_type_symbol 
_atom_site_fract_x 
_atom_site_fract_y 
_atom_site_fract_z 
_atom_site_charge 
O1          O  0.42792706  0.21212231  0.67262882    -0.83000
C2          C  0.38523884  0.16829796  0.50365516     0.96300
O3          O  0.37313364  0.15712747  0.54194619    -0.72100
O4          O  0.37640045  0.15043739  0.62748002    -0.75700
Al5        Al  0.38207867  0.19052847  0.58954153     1.49000
C6          C  0.39781480  0.13713201  0.63601990     0.91600
O7          O  0.49806879  0.20831072  0.58926966    -0.81900
O8          O  0.49864300  0.27925994  0.56344487    -0.75500
Al9        Al  0.45958900  0.20982574  0.62642054     1.90100
O10         O  0.47893483  0.20998284  0.52344883    -0.74600
O11         O  0.43203674  0.26933576  0.53622174    -0.74400
O12         O  0.41465041  0.20057484  0.49687086    -0.80100
O13         O  0.37461521  0.22421424  0.55261015    -0.78300
O14         O  0.43218460  0.21274061  0.58314492    -1.14400
O15         O  0.38714342  0.22247780  0.63775359    -0.73600
C16         C  0.40307045  0.22229311  0.67300705     0.97100
C17         C  0.50114336  0.20620781  0.54815099     0.93500
Al18       Al  0.45433065  0.23771682  0.53425003     1.55600
O19         O  0.43272276  0.15555340  0.62652835    -0.78200
C20         C  0.39664792  0.25578971  0.53491882     0.97700
C21         C  0.50657729  0.28700993  0.60373532     0.92500
O22         O  0.48842591  0.26261943  0.63255724    -0.83600
O23         O  0.29327067  0.21500554  0.83065359    -0.83000
C24         C  0.28326608  0.17418200  0.00315018     0.96300
O25         O  0.28539346  0.16136958  0.96589955    -0.72100
O26         O  0.27894722  0.15187578  0.87965752    -0.75700
Al27       Al  0.31250573  0.19259843  0.91756531     1.49000
C28         C  0.24527463  0.13964024  0.86742930     0.91600
O29         O  0.21660394  0.21235075  0.90838937    -0.81900
O30         O  0.28711760  0.28471019  0.93592162    -0.75500
Al31       Al  0.25762898  0.21358883  0.87405770     1.90100
O32         O  0.23573208  0.21719473  0.97579285    -0.74600
O33         O  0.34283496  0.27442169  0.96624403    -0.74400
O34         O  0.28970248  0.20812502  0.00737737    -0.80100
O35         O  0.35310167  0.22695549  0.95462923    -0.78300
O36         O  0.28614394  0.21680223  0.91962861    -1.14400
O37         O  0.34161028  0.22198212  0.86939809    -0.73600
C38         C  0.32772000  0.22328713  0.83306326     0.97100
C39         C  0.21001808  0.21122918  0.94907421     0.93500
Al40       Al  0.28863968  0.24388760  0.96712620     1.55600
O41         O  0.22947273  0.15925384  0.87355931    -0.78200
C42         C  0.36409072  0.26017839  0.96878913     0.97700
C43         C  0.28697046  0.29152330  0.89559112     0.92500
O44         O  0.28179868  0.26661914  0.86739234    -0.83600
O45         O  0.21156260  0.42218303  0.83776589    -0.83000
C46         C  0.22685990  0.39674145  0.66617177     0.96300
O47         O  0.22381795  0.38066109  0.70242908    -0.72100
O48         O  0.22641786  0.37403270  0.78889961    -0.75700
Al49       Al  0.19420575  0.38140369  0.74989916     1.49000
C50         C  0.25981129  0.39532884  0.80203405     0.91600
O51         O  0.28933076  0.49685320  0.76285172    -0.81900
O52         O  0.21089177  0.49556439  0.73963732    -0.75500
Al53       Al  0.24818347  0.45720059  0.79630433     1.90100
O54         O  0.26609288  0.48790246  0.69692280    -0.74600
O55         O  0.15979367  0.42888876  0.70521795    -0.74400
O56         O  0.21852304  0.42309344  0.66307513    -0.80100
O57         O  0.15413867  0.37282131  0.71053505    -0.78300
O58         O  0.21907987  0.43232244  0.75050622    -1.14400
O59         O  0.16362173  0.37993261  0.79764507    -0.73600
C60         C  0.17728788  0.39526663  0.83446078     0.97100
C61         C  0.29339386  0.50510776  0.72267584     0.93500
Al62       Al  0.21416673  0.45676550  0.70524627     1.55600
O63         O  0.27607175  0.43064516  0.79521163    -0.78200
C64         C  0.14127392  0.39357478  0.69800077     0.97700
C65         C  0.21539155  0.50432532  0.77990847     0.92500
O66         O  0.22569902  0.48738243  0.80572573    -0.83600
O67         O  0.08779067  0.29915534  0.17064706    -0.83000
C68         C  0.10168783  0.31950634  0.99351067     0.96300
O69         O  0.11808872  0.33683129  0.02830567    -0.72100
O70         O  0.12902962  0.35645474  0.11155246    -0.75700
Al71       Al  0.12095769  0.31252959  0.07875549     1.49000
C72         C  0.10733973  0.36840475  0.12466080     0.91600
O73         O  0.00471744  0.28876738  0.09939394    -0.81900
O74         O  0.00435047  0.21635065  0.08087478    -0.75500
Al75       Al  0.04881661  0.29370064  0.13043505     1.90100
O76         O  0.01485679  0.27759556  0.03192177    -0.74600
O77         O  0.06914068  0.22508246  0.04467646    -0.74400
O78         O  0.07565775  0.28474289  0.99463523    -0.80100
O79         O  0.12608299  0.27553595  0.04452548    -0.78300
O80         O  0.07079025  0.28646616  0.08367316    -1.14400
O81         O  0.12714390  0.28983986  0.12938868    -0.73600
C82         C  0.11513154  0.29254683  0.16678485     0.97100
C83         C  0.99648790  0.28563721  0.05906098     0.93500
Al84       Al  0.04318734  0.25352038  0.04171222     1.55600
O85         O  0.07184681  0.34718399  0.12288985    -0.78200
C86         C  0.10422769  0.24064456  0.03626439     0.97700
C87         C  0.00176312  0.21447202  0.12226056     0.92500
O88         O  0.02434068  0.24252210  0.14501606    -0.83600
O89         O  0.22205737  0.29945037  0.32718041    -0.83000
C90         C  0.22893044  0.32924210  0.50145515     0.96300
O91         O  0.22720085  0.34477622  0.46649789    -0.72100
O92         O  0.23660614  0.36101426  0.38143991    -0.75700
Al93       Al  0.20058443  0.31906698  0.41568836     1.49000
C94         C  0.27054836  0.37277542  0.37065692     0.91600
O95         O  0.29439409  0.29704671  0.40577211    -0.81900
O96         O  0.20654821  0.21664911  0.41754859    -0.75500
Al97       Al  0.25581571  0.29813192  0.37052928     1.90100
O98         O  0.26441368  0.27275391  0.46706689    -0.74600
O99         O  0.15999192  0.23452371  0.45512036    -0.74400
O100        O  0.21993589  0.29414388  0.50184195    -0.80100
O101        O  0.15721907  0.28637992  0.45087029    -0.78300
O102        O  0.22358152  0.29127864  0.41437242    -1.14400
O103        O  0.17291466  0.29453142  0.36449932    -0.73600
C104        C  0.18800029  0.29310653  0.32850635     0.97100
C105        C  0.29438071  0.28738527  0.44488886     0.93500
Al106      Al  0.21369723  0.25746654  0.45662675     1.55600
O107        O  0.28482873  0.35203468  0.37625680    -0.78200
C108        C  0.14249733  0.25213362  0.46198948     0.97700
C109        C  0.21427160  0.21628077  0.37739228     0.92500
O110        O  0.23314631  0.24679725  0.35699404    -0.83600
O111        O  0.27431711  0.06464070  0.16637322    -0.83000
C112        C  0.30562581  0.09829397  0.34569308     0.96300
O113        O  0.31370583  0.12261054  0.31581949    -0.72100
O114        O  0.35236607  0.12746133  0.24555327    -0.75700
Al115      Al  0.30258127  0.11873246  0.25474769     1.49000
C116        C  0.36407818  0.11372997  0.21648897     0.91600
O117        O  0.30751409  0.02031376  0.25304947    -0.81900
O118        O  0.20638232  0.01442822  0.25286272    -0.75500
Al119      Al  0.29015376  0.04361534  0.21141442     1.90100
O120        O  0.25783253  0.00064779  0.29624941    -0.74600
O121        O  0.22590002  0.07252965  0.30649453    -0.74400
O122        O  0.28074279  0.06367525  0.34059666    -0.80100
O123        O  0.25752844  0.12092595  0.26387718    -0.78300
O124        O  0.27973045  0.06799414  0.25379784    -1.14400
O125        O  0.29535538  0.12238765  0.19390271    -0.73600
C126        C  0.28209627  0.09889527  0.16230724     0.97100
C127        C  0.28754632  0.00027640  0.28488121     0.93500
Al128      Al  0.24557494  0.04016457  0.29508909     1.55600
O129        O  0.34167633  0.08141361  0.20071594    -0.78200
C130        C  0.23183735  0.10368204  0.29188447     0.97700
C131        C  0.20873579  0.99598967  0.22063591     0.92500
O132        O  0.24044254  0.99997230  0.20923365    -0.83600
C133        C  0.21197398  0.12264111  0.31115430    -0.07300
C134        C  0.21102355  0.15117144  0.28675399    -0.18500
C135        C  0.20597440  0.17929346  0.30716106     0.09900
C136        C  0.20411636  0.18039376  0.35354738    -0.07300
C137        C  0.19937826  0.14886077  0.37712709    -0.18500
C138        C  0.20222385  0.11944879  0.35628383     0.09900
S139        S  0.20400625  0.21377848  0.27205553    -0.33500
S140        S  0.19723715  0.08120823  0.39037202    -0.33500
H141        H  0.17323362  0.05250719  0.36073850     0.27900
H142        H  0.17893575  0.21884640  0.29961137     0.27900
H143        H  0.21646562  0.15288943  0.25182749     0.18500
H144        H  0.19620882  0.14834909  0.41238562     0.18500
C145        C  0.30335264  0.47582594  0.30541662    -0.07300
C146        C  0.30035850  0.44484485  0.28137070    -0.18500
C147        C  0.29522748  0.41211991  0.30266111     0.09900
C148        C  0.29171139  0.40989025  0.34877737    -0.07300
C149        C  0.29894465  0.44240479  0.37271928    -0.18500
C150        C  0.30575506  0.47561218  0.35151572     0.09900
S151        S  0.28868159  0.37257007  0.26907129    -0.33500
S152        S  0.29555939  0.00860238  0.38907116    -0.33500
H153        H  0.32439318  0.03738143  0.36370196     0.27900
H154        H  0.30819463  0.36132318  0.29740601     0.27900
H155        H  0.29868302  0.44475797  0.24600215     0.18500
H156        H  0.29700972  0.44120701  0.40807917     0.18500
C157        C  0.12438954  0.40527238  0.14773118    -0.07300
C158        C  0.11906184  0.40453834  0.19328839    -0.18500
C159        C  0.14455855  0.43492267  0.21990936     0.09900
C160        C  0.17609455  0.46651144  0.20050095    -0.07300
C161        C  0.17896794  0.46872697  0.15463614    -0.18500
C162        C  0.15345174  0.43854176  0.12813932     0.09900
S163        S  0.13873644  0.42923610  0.27826909    -0.33500
S164        S  0.16114257  0.44272813  0.06977423    -0.33500
H165        H  0.12380731  0.41501478  0.05835545     0.27900
H166        H  0.14379484  0.46582589  0.28564229     0.27900
H167        H  0.09709068  0.37873124  0.20857396     0.18500
H168        H  0.20422768  0.99393294  0.13398539     0.18500
C169        C  0.40287190  0.13722262  0.19709314    -0.07300
C170        C  0.41004341  0.12750403  0.15495092    -0.18500
C171        C  0.44273632  0.15227909  0.13081782     0.09900
C172        C  0.46953092  0.18790229  0.14898455    -0.07300
C173        C  0.46366208  0.19607037  0.19241412    -0.18500
C174        C  0.43099605  0.17174106  0.21634531     0.09900
S175        S  0.44788079  0.13696625  0.07695542    -0.33500
S176        S  0.42562770  0.18711866  0.27037868    -0.33500
H177        H  0.46388742  0.21532525  0.27653829     0.27900
H178        H  0.98032898  0.14625845  0.07024382     0.27900
H179        H  0.38927206  0.10098570  0.13970163     0.18500
H180        H  0.48379793  0.22303741  0.20730363     0.18500
C181        C  0.13347108  0.28905122  0.20675763    -0.07300
C182        C  0.11168718  0.27621643  0.24529116    -0.18500
C183        C  0.12772013  0.27438682  0.28485160     0.09900
C184        C  0.16704988  0.28682342  0.28673026    -0.07300
C185        C  0.18806690  0.29700744  0.24747715    -0.18500
C186        C  0.17214751  0.29897198  0.20800396     0.09900
S187        S  0.09594700  0.25484320  0.33100484    -0.33500
S188        S  0.20390266  0.31755227  0.16170105    -0.33500
H189        H  0.19307782  0.34456810  0.15148650     0.27900
H190        H  0.11237601  0.23366676  0.34604642     0.27900
H191        H  0.08175984  0.26730941  0.24460493     0.18500
H192        H  0.21783092  0.30549564  0.24769349     0.18500
C193        C  0.15406141  0.37910941  0.87449877    -0.07300
C194        C  0.12267866  0.34187677  0.87228646    -0.18500
C195        C  0.10324988  0.32224086  0.90991056     0.09900
C196        C  0.11559981  0.33994456  0.95141217    -0.07300
C197        C  0.14532069  0.37807968  0.95317846    -0.18500
C198        C  0.16445819  0.39777254  0.91568031     0.09900
S199        S  0.06434495  0.27430766  0.90209182    -0.33500
S200        S  0.20220092  0.44628595  0.92366406    -0.33500
H201        H  0.19256323  0.45943957  0.88652595     0.27900
H202        H  0.03888309  0.28054294  0.92753961     0.27900
H203        H  0.11394984  0.32713795  0.84108535     0.18500
H204        H  0.15475466  0.39271791  0.98434365     0.18500
C205        C  0.23746659  0.38319884  0.62584133    -0.07300
C206        C  0.24385914  0.40414392  0.58725136    -0.18500
C207        C  0.24555985  0.38919731  0.54642494     0.09900
C208        C  0.23867642  0.35127341  0.54331918    -0.07300
C209        C  0.23706178  0.33237148  0.58223610    -0.18500
C210        C  0.23742458  0.34819380  0.62322084     0.09900
S211        S  0.25637014  0.42026276  0.50018521    -0.33500
S212        S  0.23668058  0.32137377  0.67018215    -0.33500
H213        H  0.26630589  0.35349899  0.69108565     0.27900
H214        H  0.28206285  0.41022961  0.48173732     0.27900
H215        H  0.24655210  0.43215382  0.58860573     0.18500
H216        H  0.23422580  0.30431195  0.58093948     0.18500
C217        C  0.27672196  0.11289535  0.12000086    -0.07300
C218        C  0.26450166  0.13972566  0.12088559    -0.18500
C219        C  0.26357797  0.15819169  0.08281217     0.09900
C220        C  0.27619174  0.15042730  0.04269073    -0.07300
C221        C  0.28562381  0.12141523  0.04130378    -0.18500
C222        C  0.28627599  0.10283045  0.07935862     0.09900
S223        S  0.24560290  0.19096423  0.08630309    -0.33500
S224        S  0.30268195  0.06907392  0.07414829    -0.33500
H225        H  0.32797029  0.08432472  0.10941928     0.27900
H226        H  0.23484619  0.18520601  0.13066759     0.27900
H227        H  0.25623582  0.14669085  0.15187564     0.18500
H228        H  0.29487912  0.11472471  0.01079983     0.18500
C229        C  0.17352525  0.20636496  0.96716883    -0.07300
C230        C  0.16589904  0.19795191  0.01212254    -0.18500
C231        C  0.13993638  0.20508541  0.03506083     0.09900
C232        C  0.12052976  0.22018816  0.01270181    -0.07300
C233        C  0.12479632  0.22461793  0.96718250    -0.18500
C234        C  0.15046551  0.21727573  0.94406113     0.09900
S235        S  0.13406061  0.19820134  0.09348002    -0.33500
S236        S  0.15492998  0.22621807  0.88615232    -0.33500
H237        H  0.15305595  0.19138272  0.87560660     0.27900
H238        H  0.15903581  0.18397510  0.09853333     0.27900
H239        H  0.18237924  0.18845895  0.03005443     0.18500
H240        H  0.10989922  0.23638677  0.94992235     0.18500
C241        C  0.40073916  0.28006835  0.99185422    -0.07300
C242        C  0.40029108  0.27757217  0.03763129    -0.18500
C243        C  0.43285443  0.28459409  0.06079268     0.09900
C244        C  0.46673957  0.29400955  0.03763398    -0.07300
C245        C  0.46785437  0.30029151  0.99215293    -0.18500
C246        C  0.43513722  0.29282138  0.96907395     0.09900
S247        S  0.92257715  0.25969940  0.12048450    -0.33500
S248        S  0.43657612  0.29682700  0.91019001    -0.33500
H249        H  0.47441407  0.30535463  0.90453113     0.27900
H250        H  0.95260381  0.29494176  0.13521551     0.27900
H251        H  0.37363265  0.26721231  0.05515223     0.18500
H252        H  0.49383700  0.30842851  0.97410422     0.18500
C253        C  0.21308634  0.03736387  0.79593445    -0.07300
C254        C  0.20036287  0.03534566  0.83939208    -0.18500
C255        C  0.20755647  0.06808705  0.86301267     0.09900
C256        C  0.22645421  0.10375289  0.84230003    -0.07300
C257        C  0.23541583  0.10550072  0.79759840    -0.18500
C258        C  0.22950051  0.07291735  0.77436991     0.09900
S259        S  0.19570523  0.06297581  0.92052642    -0.33500
S260        S  0.24810761  0.07973998  0.71944585    -0.33500
H261        H  0.27152285  0.06424439  0.72819088     0.27900
H262        H  0.19484288  0.09707648  0.92551438     0.27900
H263        H  0.18694225  0.00838937  0.85611524     0.18500
H264        H  0.25049154  0.13305487  0.78177116     0.18500
C265        C  0.27678597  0.37855172  0.83034306    -0.07300
C266        C  0.26065772  0.36675380  0.87216396    -0.18500
C267        C  0.26721021  0.34176872  0.89706282     0.09900
C268        C  0.28996051  0.32745707  0.87955523    -0.07300
C269        C  0.30859436  0.34189303  0.83925261    -0.18500
C270        C  0.30235645  0.36725003  0.81458238     0.09900
S271        S  0.24133425  0.32502686  0.94775706    -0.33500
S272        S  0.32461275  0.38064496  0.76146363    -0.33500
H273        H  0.32294373  0.41428586  0.75758553     0.27900
H274        H  0.27363419  0.33224669  0.97174824     0.27900
H275        H  0.24076364  0.37516060  0.88437366     0.18500
H276        H  0.32625708  0.33134123  0.82547568     0.18500
C277        C  0.33099881  0.03477117  0.70691250    -0.07300
C278        C  0.33766909  0.03304789  0.66177664    -0.18500
C279        C  0.36218990  0.06574404  0.63814250     0.09900
C280        C  0.38151993  0.10105654  0.66001949    -0.07300
C281        C  0.37828590  0.10240495  0.70570304    -0.18500
C282        C  0.35363864  0.06961035  0.72950196     0.09900
S283        S  0.36397072  0.06134186  0.57948095    -0.33500
S284        S  0.34925389  0.07526940  0.78737517    -0.33500
H285        H  0.35139169  0.04271385  0.79821788     0.27900
H286        H  0.39985108  0.09393041  0.57327986     0.27900
H287        H  0.32112456  0.00651695  0.64387047     0.18500
H288        H  0.39311465  0.12969967  0.72257452     0.18500
C289        C  0.10589926  0.37607902  0.67206034    -0.07300
C290        C  0.07090716  0.36272927  0.69332689    -0.18500
C291        C  0.03670991  0.33888506  0.67151187     0.09900
C292        C  0.03745656  0.32684210  0.62788263    -0.07300
C293        C  0.07226522  0.34329199  0.60547123    -0.18500
C294        C  0.10644188  0.36774210  0.62711397     0.09900
S295        S  0.49480535  0.33132405  0.68421111    -0.33500
S296        S  0.15081039  0.38618497  0.59772715    -0.33500
H297        H  0.13549817  0.36894300  0.55710361     0.27900
H298        H  0.47327544  0.32035535  0.64554428     0.27900
H299        H  0.07025560  0.36958390  0.72758354     0.18500
H300        H  0.07301883  0.33437441  0.57213161     0.18500
C301        C  0.35115727  0.23111639  0.79273623    -0.07300
C302        C  0.38309832  0.22641140  0.79436116    -0.18500
C303        C  0.40278160  0.22669222  0.75650708     0.09900
C304        C  0.38970826  0.23053938  0.71508733    -0.07300
C305        C  0.35974896  0.23847291  0.71388169    -0.18500
C306        C  0.34089197  0.23946284  0.75196445     0.09900
S307        S  0.44338006  0.22069096  0.76408008    -0.33500
S308        S  0.30410186  0.25149497  0.74578583    -0.33500
H309        H  0.31399190  0.27401193  0.78398524     0.27900
H310        H  0.46698602  0.25105101  0.73622891     0.27900
H311        H  0.39226858  0.22112338  0.82535826     0.18500
H312        H  0.35008515  0.24303791  0.68282380     0.18500
C313        C  0.10597625  0.23391685  0.48594109    -0.07300
C314        C  0.07197145  0.21611858  0.46260940    -0.18500
C315        C  0.03712154  0.20404336  0.48385159     0.09900
C316        C  0.03626125  0.21172362  0.52921450    -0.07300
C317        C  0.07007358  0.22633763  0.55305050    -0.18500
C318        C  0.10482303  0.23723719  0.53189241     0.09900
S319        S  0.49293859  0.17199445  0.44939048    -0.33500
S320        S  0.14780578  0.25708875  0.56358042    -0.33500
H321        H  0.13158155  0.25756856  0.60426141     0.27900
H322        H  0.46967889  0.14947145  0.48399691     0.27900
H323        H  0.07263723  0.21240407  0.42751692     0.18500
H324        H  0.06972802  0.23177330  0.58774745     0.18500
C325        C  0.32876218  0.29076455  0.46563666    -0.07300
C326        C  0.35075621  0.27876155  0.44221854    -0.18500
C327        C  0.37647113  0.27106878  0.46375272     0.09900
C328        C  0.37984532  0.27465907  0.50989060    -0.07300
C329        C  0.35999523  0.28935196  0.53275688    -0.18500
C330        C  0.33544385  0.29844403  0.51104133     0.09900
S331        S  0.40094837  0.25276158  0.43111937    -0.33500
S332        S  0.31254768  0.31871197  0.54341307    -0.33500
H333        H  0.30856609  0.33900915  0.50876054     0.27900
H334        H  0.43586154  0.27485435  0.45244695     0.27900
H335        H  0.34602381  0.27278424  0.40748777     0.18500
H336        H  0.36258417  0.29247045  0.56801727     0.18500
C337        C  0.32545649  0.11084747  0.38754869    -0.07300
C338        C  0.30515479  0.11257158  0.42386056    -0.18500
C339        C  0.32367857  0.12949416  0.46314310     0.09900
C340        C  0.36344743  0.14486250  0.46594808    -0.07300
C341        C  0.38325070  0.14115318  0.43023109    -0.18500
C342        C  0.36457383  0.12361568  0.39136159     0.09900
S343        S  0.29672965  0.13433866  0.50767224    -0.33500
S344        S  0.39235241  0.11802941  0.34856346    -0.33500
H345        H  0.36254251  0.09271507  0.32131497     0.27900
H346        H  0.26156546  0.11818457  0.48610761     0.27900
H347        H  0.27506991  0.10216965  0.42067119     0.18500
H348        H  0.41355453  0.15238651  0.43249505     0.18500
O349        O  0.42750081  0.71410020  0.67392398    -0.83000
C350        C  0.38841017  0.67532201  0.50376179     0.96300
O351        O  0.37537500  0.66345341  0.54157154    -0.72100
O352        O  0.37576050  0.65373424  0.62667437    -0.75700
Al353      Al  0.38240315  0.69489429  0.59044189     1.49000
C354        C  0.39660198  0.63968642  0.63422285     0.91600
O355        O  0.49730722  0.71059252  0.58980962    -0.81900
O356        O  0.49781082  0.78655691  0.56957635    -0.75500
Al357      Al  0.45934172  0.71229817  0.62754507     1.90100
O358        O  0.48249160  0.72070910  0.52499805    -0.74600
O359        O  0.43164701  0.77563621  0.54141471    -0.74400
O360        O  0.41710801  0.70856961  0.49844087    -0.80100
O361        O  0.37456594  0.72897152  0.55482859    -0.78300
O362        O  0.43276854  0.71779252  0.58510694    -1.14400
O363        O  0.38627638  0.72489950  0.64034962    -0.73600
C364        C  0.40214321  0.72365550  0.67528862     0.97100
C365        C  0.50197794  0.71220621  0.54870266     0.93500
Al366      Al  0.45543474  0.74550748  0.53783059     1.55600
O367        O  0.43151597  0.65797855  0.62504745    -0.78200
C368        C  0.39630160  0.76131060  0.53879704     0.97700
C369        C  0.50622657  0.79148572  0.60993479     0.92500
O370        O  0.48962668  0.76462115  0.63652594    -0.83600
O371        O  0.29206712  0.71518409  0.83358733    -0.83000
C372        C  0.28184792  0.67282159  0.00554622     0.96300
O373        O  0.28372323  0.66026073  0.96808686    -0.72100
O374        O  0.27733468  0.65120873  0.88206689    -0.75700
Al375      Al  0.31094056  0.69164865  0.92019228     1.49000
C376        C  0.24365527  0.63900723  0.86997555     0.91600
O377        O  0.21546621  0.71176575  0.91234159    -0.81900
O378        O  0.28645674  0.78436595  0.93994672    -0.75500
Al379      Al  0.25632142  0.71330439  0.87739569     1.90100
O380        O  0.23502146  0.71698616  0.97964937    -0.74600
O381        O  0.34201009  0.77330561  0.96923435    -0.74400
O382        O  0.28864775  0.70686872  0.01042703    -0.80100
O383        O  0.35165766  0.72548106  0.95736426    -0.78300
O384        O  0.28487947  0.71615577  0.92274976    -1.14400
O385        O  0.34007763  0.72119554  0.87239049    -0.73600
C386        C  0.32636422  0.72287460  0.83611762     0.97100
C387        C  0.20918861  0.71097041  0.95309117     0.93500
Al388      Al  0.28782710  0.74316761  0.97057713     1.55600
O389        O  0.22801820  0.65878695  0.87617111    -0.78200
C390        C  0.36302395  0.75878176  0.97145019     0.97700
C391        C  0.28571391  0.79122720  0.89973544     0.92500
O392        O  0.28035362  0.76645301  0.87127821    -0.83600
O393        O  0.20906589  0.92129438  0.83818395    -0.83000
C394        C  0.22591285  0.89484793  0.66732198     0.96300
O395        O  0.22271073  0.87927781  0.70393100    -0.72100
O396        O  0.22392419  0.87273726  0.79056598    -0.75700
Al397      Al  0.19273799  0.88085097  0.75039983     1.49000
C398        C  0.25717307  0.89365394  0.80452650     0.91600
O399        O  0.28900178  0.99595324  0.76521759    -0.81900
O400        O  0.21374015  0.99657913  0.73816691    -0.75500
Al401      Al  0.24671189  0.95618545  0.79753430     1.90100
O402        O  0.26819064  0.98588940  0.69809117    -0.74600
O403        O  0.16143413  0.93052186  0.70349139    -0.74400
O404        O  0.21895945  0.92204829  0.66359133    -0.80100
O405        O  0.15366983  0.87358917  0.71005862    -0.78300
O406        O  0.21860418  0.93171538  0.75098209    -1.14400
O407        O  0.16151696  0.87991434  0.79705407    -0.73600
C408        C  0.17467433  0.89484354  0.83409925     0.97100
C409        C  0.29463243  0.00345047  0.72487440     0.93500
Al410      Al  0.21580335  0.95668878  0.70493076     1.55600
O411        O  0.27400401  0.92903126  0.79777005    -0.78200
C412        C  0.14200273  0.89515329  0.69666517     0.97700
C413        C  0.21627738  0.00461437  0.77856966     0.92500
O414        O  0.22427483  0.98649651  0.80543513    -0.83600
O415        O  0.08689458  0.80248530  0.17018848    -0.83000
C416        C  0.10066125  0.81865372  0.99270039     0.96300
O417        O  0.11707804  0.83657337  0.02719271    -0.72100
O418        O  0.12799396  0.85825149  0.10947481    -0.75700
Al419      Al  0.12008402  0.81358524  0.07848847     1.49000
C420        C  0.10621384  0.87055442  0.12106134     0.91600
O421        O  0.00388802  0.79015175  0.09628884    -0.81900
O422        O  0.00275376  0.71774526  0.08139418    -0.75500
Al423      Al  0.04800451  0.79598775  0.12875904     1.90100
O424        O  0.01508086  0.77803803  0.02971855    -0.74600
O425        O  0.06819222  0.72517501  0.04772464    -0.74400
O426        O  0.07553936  0.78355411  0.99426762    -0.80100
O427        O  0.12513624  0.77574277  0.04615937    -0.78300
O428        O  0.07005282  0.78770447  0.08308355    -1.14400
O429        O  0.12608457  0.79203166  0.13009637    -0.73600
C430        C  0.11397545  0.79536765  0.16714273     0.97100
C431        C  0.99638375  0.78665095  0.05565923     0.93500
Al432      Al  0.04257743  0.75369973  0.04186733     1.55600
O433        O  0.07073441  0.84920830  0.11943597    -0.78200
C434        C  0.10329099  0.74057872  0.03936709     0.97700
C435        C  0.00053014  0.71737520  0.12282486     0.92500
O436        O  0.02438316  0.74537176  0.14455746    -0.83600
O437        O  0.21842925  0.79672169  0.32787292    -0.83000
C438        C  0.22381362  0.82543910  0.50272774     0.96300
O439        O  0.22155647  0.84100745  0.46806519    -0.72100
O440        O  0.23136788  0.85787617  0.38334035    -0.75700
Al441      Al  0.19571195  0.81526968  0.41668406     1.49000
C442        C  0.26531906  0.87037139  0.37206725     0.91600
O443        O  0.29175132  0.79671491  0.40727077    -0.81900
O444        O  0.20558702  0.71491408  0.41905867    -0.75500
Al445      Al  0.25249383  0.79622742  0.37144239     1.90100
O446        O  0.26178767  0.77221408  0.46848742    -0.74600
O447        O  0.15691518  0.73036136  0.45567232    -0.74400
O448        O  0.21533602  0.79057688  0.50271306    -0.80100
O449        O  0.15232251  0.78122758  0.45108109    -0.78300
O450        O  0.21983453  0.78854301  0.41523479    -1.14400
O451        O  0.16884357  0.79109798  0.36489329    -0.73600
C452        C  0.18444173  0.79059701  0.32890315     0.97100
C453        C  0.29196038  0.78786492  0.44672971     0.93500
Al454      Al  0.21079482  0.75495098  0.45759511     1.55600
O455        O  0.28030491  0.85017191  0.37680216    -0.78200
C456        C  0.13847807  0.74707280  0.46230389     0.97700
C457        C  0.21335798  0.71434611  0.37903339     0.92500
O458        O  0.23105455  0.74470549  0.35794845    -0.83600
O459        O  0.27145451  0.56171909  0.16766128    -0.83000
C460        C  0.31015557  0.59990477  0.34550354     0.96300
O461        O  0.31466296  0.62316562  0.31558526    -0.72100
O462        O  0.35186183  0.62604812  0.24544617    -0.75700
Al463      Al  0.30234124  0.61738995  0.25476747     1.49000
C464        C  0.36298573  0.61451287  0.21354047     0.91600
O465        O  0.31120728  0.52172864  0.25139484    -0.81900
O466        O  0.20839558  0.51215527  0.25792745    -0.75500
Al467      Al  0.29059155  0.54281775  0.21137601     1.90100
O468        O  0.26326412  0.50117689  0.29762198    -0.74600
O469        O  0.22920920  0.57165866  0.31070331    -0.74400
O470        O  0.28681498  0.56465033  0.34140583    -0.80100
O471        O  0.25645932  0.61791664  0.26421458    -0.78300
O472        O  0.28091010  0.56699388  0.25471313    -1.14400
O473        O  0.29425894  0.62010439  0.19396201    -0.73600
C474        C  0.27973292  0.59605808  0.16308996     0.97100
C475        C  0.29286328  0.50159142  0.28391881     0.93500
Al476      Al  0.24936231  0.53956304  0.29796447     1.55600
O477        O  0.34105230  0.58217618  0.19740802    -0.78200
C478        C  0.23305857  0.60171850  0.29475449     0.97700
C479        C  0.21012059  0.49354238  0.22540786     0.92500
O480        O  0.24168888  0.49801720  0.21249423    -0.83600
C481        C  0.21381856  0.62090355  0.31520046    -0.07300
C482        C  0.20950701  0.64730417  0.29021912    -0.18500
C483        C  0.20385179  0.67525976  0.31025286     0.09900
C484        C  0.20461216  0.67833634  0.35653033    -0.07300
C485        C  0.20381569  0.64904301  0.38119566    -0.18500
C486        C  0.20761814  0.61995631  0.36109238     0.09900
S487        S  0.19732821  0.70690032  0.27488542    -0.33500
S488        S  0.20902555  0.58563331  0.39683509    -0.33500
H489        H  0.18255394  0.55413075  0.37198229     0.27900
H490        H  0.17395197  0.71268364  0.30454885     0.27900
H491        H  0.21255060  0.64743489  0.25494235     0.18500
H492        H  0.20311732  0.65027391  0.41659666     0.18500
C493        C  0.29639767  0.97398590  0.30843629    -0.07300
C494        C  0.29833381  0.94512422  0.28484615    -0.18500
C495        C  0.29343998  0.91235304  0.30605696     0.09900
C496        C  0.28581969  0.90816258  0.35155888    -0.07300
C497        C  0.28794274  0.93867511  0.37544321    -0.18500
C498        C  0.29373465  0.97156998  0.35464950     0.09900
S499        S  0.29206513  0.87484979  0.27262536    -0.33500
S500        S  0.31532341  0.51614922  0.38509594    -0.33500
H501        H  0.33769313  0.54299642  0.35309485     0.27900
H502        H  0.31177323  0.86532041  0.30277209     0.27900
H503        H  0.30036267  0.94652522  0.24945466     0.18500
H504        H  0.28255883  0.93587081  0.41035028     0.18500
C505        C  0.12316123  0.90812084  0.14246638    -0.07300
C506        C  0.11646172  0.90886217  0.18753888    -0.18500
C507        C  0.14205473  0.93933625  0.21393723     0.09900
C508        C  0.17514266  0.96939452  0.19482934    -0.07300
C509        C  0.17936995  0.97046978  0.14908782    -0.18500
C510        C  0.15358660  0.94031221  0.12276548     0.09900
S511        S  0.13408720  0.93545580  0.27212181    -0.33500
S512        S  0.16245104  0.94299346  0.06464610    -0.33500
H513        H  0.12495913  0.91603062  0.05280615     0.27900
H514        H  0.13925770  0.97236238  0.27663932     0.27900
H515        H  0.09330054  0.88396149  0.20292654     0.18500
H516        H  0.20278094  0.49318292  0.13939152     0.18500
C517        C  0.40032208  0.64026643  0.19226679    -0.07300
C518        C  0.41419945  0.62548874  0.15936359    -0.18500
C519        C  0.44685241  0.64939387  0.13454031     0.09900
C520        C  0.46618767  0.68898985  0.14264980    -0.07300
C521        C  0.45247697  0.70356753  0.17538565    -0.18500
C522        C  0.41991919  0.68030904  0.19969998     0.09900
S523        S  0.46259506  0.62776961  0.09386007    -0.33500
S524        S  0.40361945  0.70374140  0.23783264    -0.33500
H525        H  0.42671286  0.74138364  0.22313324     0.27900
H526        H  0.99069462  0.64968734  0.08696462     0.27900
H527        H  0.39928772  0.59511464  0.15250538     0.18500
H528        H  0.46709992  0.73407274  0.18128328     0.18500
C529        C  0.13189780  0.79163044  0.20740623    -0.07300
C530        C  0.10947879  0.77706076  0.24525730    -0.18500
C531        C  0.12489264  0.77336706  0.28446375     0.09900
C532        C  0.16426929  0.78606427  0.28688733    -0.07300
C533        C  0.18612701  0.79870326  0.24833833    -0.18500
C534        C  0.17069344  0.80196518  0.20908344     0.09900
S535        S  0.09232062  0.75087764  0.32936807    -0.33500
S536        S  0.20304686  0.82222300  0.16350731    -0.33500
H537        H  0.19095908  0.84823889  0.15318411     0.27900
H538        H  0.10947015  0.72998280  0.34306775     0.27900
H539        H  0.07946410  0.76780427  0.24412208     0.18500
H540        H  0.21614109  0.80803039  0.24906280     0.18500
C541        C  0.15083882  0.87861454  0.87360838    -0.07300
C542        C  0.11985785  0.84112766  0.87140007    -0.18500
C543        C  0.10072389  0.82139732  0.90913957     0.09900
C544        C  0.11349114  0.83908232  0.95054974    -0.07300
C545        C  0.14233661  0.87758178  0.95217076    -0.18500
C546        C  0.16069625  0.89752638  0.91459492     0.09900
S547        S  0.06132551  0.77368871  0.90167769    -0.33500
S548        S  0.19654018  0.94686358  0.92202279    -0.33500
H549        H  0.18661893  0.95800698  0.88352732     0.27900
H550        H  0.03683027  0.77984355  0.92906771     0.27900
H551        H  0.11125669  0.82637808  0.84019895     0.18500
H552        H  0.15165757  0.89238669  0.98322436     0.18500
C553        C  0.23495539  0.87978422  0.62733413    -0.07300
C554        C  0.24415844  0.90158394  0.58901763    -0.18500
C555        C  0.24444112  0.88600150  0.54813300     0.09900
C556        C  0.23389034  0.84701378  0.54480687    -0.07300
C557        C  0.22946388  0.82686052  0.58359199    -0.18500
C558        C  0.23020479  0.84269988  0.62458330     0.09900
S559        S  0.25855618  0.91769751  0.50211986    -0.33500
S560        S  0.22240939  0.81273032  0.67118522    -0.33500
H561        H  0.25466725  0.84080745  0.69345296     0.27900
H562        H  0.28086331  0.90366695  0.48305485     0.27900
H563        H  0.25005071  0.93081547  0.59063044     0.18500
H564        H  0.22396976  0.79779199  0.58217430     0.18500
C565        C  0.27401269  0.60968564  0.12091783    -0.07300
C566        C  0.25993888  0.63498704  0.12173085    -0.18500
C567        C  0.25973145  0.65418580  0.08400743     0.09900
C568        C  0.27462455  0.64847947  0.04444508    -0.07300
C569        C  0.28600951  0.62090811  0.04299942    -0.18500
C570        C  0.28625933  0.60183206  0.08076166     0.09900
S571        S  0.24024565  0.68562706  0.08728493    -0.33500
S572        S  0.30601809  0.57082098  0.07630869    -0.33500
H573        H  0.33058240  0.58745864  0.11203527     0.27900
H574        H  0.22462685  0.67540078  0.12958578     0.27900
H575        H  0.25009515  0.64053219  0.15249197     0.18500
H576        H  0.29723554  0.61597971  0.01289636     0.18500
C577        C  0.17286476  0.70637083  0.97135799    -0.07300
C578        C  0.16539431  0.69830508  0.01641416    -0.18500
C579        C  0.13932501  0.70537457  0.03921230     0.09900
C580        C  0.11947472  0.71979347  0.01650234    -0.07300
C581        C  0.12368471  0.72395223  0.97099257    -0.18500
C582        C  0.14972071  0.71708026  0.94810817     0.09900
S583        S  0.13394659  0.69941204  0.09779048    -0.33500
S584        S  0.15484939  0.72695701  0.89041296    -0.33500
H585        H  0.15235315  0.69196442  0.87921208     0.27900
H586        H  0.15850201  0.68470006  0.10297902     0.27900
H587        H  0.18205701  0.68915160  0.03449998     0.18500
H588        H  0.10864101  0.73548902  0.95355930     0.18500
C589        C  0.39992543  0.77855349  0.99384205    -0.07300
C590        C  0.40010873  0.77614602  0.03957992    -0.18500
C591        C  0.43306551  0.78349902  0.06205455     0.09900
C592        C  0.46674628  0.79333276  0.03817685    -0.07300
C593        C  0.46717263  0.79965238  0.99276726    -0.18500
C594        C  0.43401732  0.79156358  0.97036140     0.09900
S595        S  0.92771357  0.77820634  0.11889605    -0.33500
S596        S  0.43451955  0.79468318  0.91141214    -0.33500
H597        H  0.47387230  0.80984191  0.90566584     0.27900
H598        H  0.96131039  0.81337043  0.12531284     0.27900
H599        H  0.37367630  0.76564975  0.05758971     0.18500
H600        H  0.49289438  0.80801813  0.97412116     0.18500
C601        C  0.21194521  0.53675589  0.79810604    -0.07300
C602        C  0.19992228  0.53458565  0.84192765    -0.18500
C603        C  0.20672337  0.56722700  0.86568766     0.09900
C604        C  0.22471707  0.60294670  0.84491855    -0.07300
C605        C  0.23320738  0.60473595  0.80007651    -0.18500
C606        C  0.22765035  0.57232943  0.77667943     0.09900
S607        S  0.19536823  0.56198652  0.92333537    -0.33500
S608        S  0.24608016  0.57952807  0.72165542    -0.33500
H609        H  0.26912759  0.56348508  0.72962122     0.27900
H610        H  0.19431609  0.59596429  0.92868153     0.27900
H611        H  0.18732950  0.50768421  0.85865972     0.18500
H612        H  0.24776007  0.63227748  0.78421861     0.18500
C613        C  0.27331709  0.87647999  0.83365596    -0.07300
C614        C  0.25504163  0.86262204  0.87411933    -0.18500
C615        C  0.26231410  0.83847705  0.89969659     0.09900
C616        C  0.28789369  0.82692816  0.88418218    -0.07300
C617        C  0.30833661  0.84327564  0.84531984    -0.18500
C618        C  0.30149071  0.86797357  0.82007201     0.09900
S619        S  0.23412848  0.81920967  0.94851785    -0.33500
S620        S  0.32621344  0.88378758  0.76855021    -0.33500
H621        H  0.32567292  0.91814626  0.76698224     0.27900
H622        H  0.26540232  0.82656817  0.97459513     0.27900
H623        H  0.23328981  0.86899838  0.88477419     0.18500
H624        H  0.32806241  0.83475417  0.83303632     0.18500
C625        C  0.32900681  0.53681565  0.70399224    -0.07300
C626        C  0.33506242  0.53538550  0.65863092    -0.18500
C627        C  0.35979536  0.56816852  0.63518883     0.09900
C628        C  0.37978196  0.60324086  0.65747113    -0.07300
C629        C  0.37652802  0.60429414  0.70313297    -0.18500
C630        C  0.35166377  0.57153755  0.72670987     0.09900
S631        S  0.36136268  0.56421082  0.57644793    -0.33500
S632        S  0.34661311  0.57730063  0.78441555    -0.33500
H633        H  0.35067004  0.54596664  0.79582981     0.27900
H634        H  0.39733924  0.59669745  0.57036520     0.27900
H635        H  0.31815886  0.50900764  0.64058063     0.18500
H636        H  0.39148909  0.63143196  0.72020120     0.18500
C637        C  0.10678660  0.87830039  0.67042675    -0.07300
C638        C  0.07179455  0.86527557  0.69155863    -0.18500
C639        C  0.03760250  0.84116164  0.66988859     0.09900
C640        C  0.03832359  0.82827488  0.62669184    -0.07300
C641        C  0.07310799  0.84455610  0.60419936    -0.18500
C642        C  0.10730092  0.86955471  0.62560031     0.09900
S643        S  0.49452869  0.82364103  0.70178896    -0.33500
S644        S  0.15168521  0.88803091  0.59622362    -0.33500
H645        H  0.13612594  0.87277382  0.55498455     0.27900
H646        H  0.47096759  0.81579944  0.66516534     0.27900
H647        H  0.07113565  0.87251848  0.72566299     0.18500
H648        H  0.07387039  0.83507620  0.57114612     0.18500
C649        C  0.34985867  0.73020240  0.79603494    -0.07300
C650        C  0.37831286  0.72024749  0.79662960    -0.18500
C651        C  0.39799906  0.72069406  0.75878165     0.09900
C652        C  0.38845646  0.73024377  0.71813881    -0.07300
C653        C  0.36175522  0.74274078  0.71815762    -0.18500
C654        C  0.34295664  0.74344773  0.75651848     0.09900
S655        S  0.43352304  0.70698222  0.76533280    -0.33500
S656        S  0.31102566  0.76200358  0.75273603    -0.33500
H657        H  0.32053041  0.77975031  0.79404982     0.27900
H658        H  0.46209404  0.73978200  0.74439662     0.27900
H659        H  0.38458352  0.71068237  0.82675188     0.18500
H660        H  0.35486472  0.75149519  0.68786559     0.18500
C661        C  0.10203689  0.72817417  0.48653190    -0.07300
C662        C  0.06783581  0.71139489  0.46355697    -0.18500
C663        C  0.03330402  0.69982620  0.48539129     0.09900
C664        C  0.03313024  0.70768545  0.53079388    -0.07300
C665        C  0.06690240  0.72078792  0.55426378    -0.18500
C666        C  0.10118583  0.73055165  0.53262993     0.09900
S667        S  0.49155192  0.68221207  0.44819536    -0.33500
S668        S  0.14403276  0.74793868  0.56399130    -0.33500
H669        H  0.12778756  0.74546737  0.60552255     0.27900
H670        H  0.46684087  0.65966837  0.48185300     0.27900
H671        H  0.06811287  0.70808236  0.42834608     0.18500
H672        H  0.06702479  0.72608673  0.58906506     0.18500
C673        C  0.32688198  0.79344758  0.46857424    -0.07300
C674        C  0.35189951  0.78520716  0.44550760    -0.18500
C675        C  0.37843796  0.77911637  0.46770168     0.09900
C676        C  0.37935871  0.78018194  0.51404792    -0.07300
C677        C  0.35676270  0.79171173  0.53669857    -0.18500
C678        C  0.33161349  0.79959767  0.51444220     0.09900
S679        S  0.40729513  0.76588305  0.43534896    -0.33500
S680        S  0.30553776  0.81636305  0.54673747    -0.33500
H681        H  0.30215187  0.83761175  0.51275569     0.27900
H682        H  0.44054306  0.78892972  0.45928840     0.27900
H683        H  0.34902791  0.78083467  0.41040597     0.18500
H684        H  0.35767206  0.79319469  0.57212341     0.18500
C685        C  0.33198803  0.61463283  0.38629768    -0.07300
C686        C  0.31286254  0.60271061  0.42638724    -0.18500
C687        C  0.33091932  0.62016039  0.46581898     0.09900
C688        C  0.36903513  0.65113667  0.46486685    -0.07300
C689        C  0.38869778  0.66089078  0.42476500    -0.18500
C690        C  0.37094210  0.64235679  0.38595270     0.09900
S691        S  0.30348327  0.60356758  0.51586345    -0.33500
S692        S  0.39986584  0.65422030  0.33732510    -0.33500
H693        H  0.38047434  0.61697612  0.31981347     0.27900
H694        H  0.27376875  0.56916163  0.49885529     0.27900
H695        H  0.28313550  0.58082924  0.42655041     0.18500
H696        H  0.41822496  0.68326962  0.42347140     0.18500
O697        O  0.92535850  0.21142941  0.67221537    -0.83000
C698        C  0.88966914  0.17636641  0.49994794     0.96300
O699        O  0.87594485  0.16303830  0.53711837    -0.72100
O700        O  0.87630263  0.15129014  0.62193670    -0.75700
Al701      Al  0.88238707  0.19327931  0.58710312     1.49000
C702        C  0.89810338  0.13839868  0.63031845     0.91600
O703        O  0.99919731  0.21333797  0.59046215    -0.81900
O704        O  0.99878986  0.28556296  0.56918224    -0.75500
Al705      Al  0.95904965  0.21227602  0.62670026     1.90100
O706        O  0.98283237  0.21918130  0.52461706    -0.74600
O707        O  0.93287331  0.27517294  0.53935479    -0.74400
O708        O  0.91899723  0.20913838  0.49571738    -0.80100
O709        O  0.87548438  0.22850021  0.55249456    -0.78300
O710        O  0.93283199  0.21690336  0.58314123    -1.14400
O711        O  0.88453218  0.22186289  0.63762667    -0.73600
C712        C  0.89977338  0.22058148  0.67295053     0.97100
C713        C  0.00369119  0.21343713  0.54939142     0.93500
Al714      Al  0.95650989  0.24490090  0.53637077     1.55600
O715        O  0.93330169  0.15814591  0.62304218    -0.78200
C716        C  0.89748959  0.26083733  0.53647357     0.97700
C717        C  0.00533671  0.29106619  0.60999314     0.92500
O718        O  0.98688627  0.26469031  0.63666380    -0.83600
O719        O  0.79054290  0.21381420  0.83170919    -0.83000
C720        C  0.77971996  0.17094209  0.00283547     0.96300
O721        O  0.78223653  0.15866461  0.96538178    -0.72100
O722        O  0.77713288  0.15049801  0.87899376    -0.75700
Al723      Al  0.80989200  0.19054462  0.91789403     1.49000
C724        C  0.74340096  0.13771183  0.86689105     0.91600
O725        O  0.71339490  0.20922221  0.91008073    -0.81900
O726        O  0.78665037  0.28369144  0.93727601    -0.75500
Al727      Al  0.75452886  0.21134979  0.87527336     1.90100
O728        O  0.73391733  0.21702131  0.97720245    -0.74600
O729        O  0.84123445  0.27156609  0.96812239    -0.74400
O730        O  0.78630600  0.20493048  0.00783596    -0.80100
O731        O  0.85024653  0.22350474  0.95613502    -0.78300
O732        O  0.78355409  0.21482794  0.92054852    -1.14400
O733        O  0.83913333  0.22079013  0.87027035    -0.73600
C734        C  0.82499169  0.22196675  0.83397828     0.97100
C735        C  0.70771977  0.20997381  0.95076888     0.93500
Al736      Al  0.78676509  0.24203116  0.96829804     1.55600
O737        O  0.72697947  0.15666867  0.87393184    -0.78200
C738        C  0.86164480  0.25642747  0.97136020     0.97700
C739        C  0.78457274  0.28991994  0.89712830     0.92500
O740        O  0.77752565  0.26446235  0.86891545    -0.83600
O741        O  0.70873275  0.42131991  0.83530516    -0.83000
C742        C  0.72967072  0.39706975  0.66547411     0.96300
O743        O  0.72607549  0.38104344  0.70194642    -0.72100
O744        O  0.72545582  0.37323739  0.78871378    -0.75700
Al745      Al  0.69443553  0.38044456  0.74782509     1.49000
C746        C  0.75837759  0.39453014  0.80304505     0.91600
O747        O  0.78837571  0.49576702  0.76246971    -0.81900
O748        O  0.70713951  0.49259213  0.73652570    -0.75500
Al749      Al  0.74645469  0.45633364  0.79497936     1.90100
O750        O  0.76560656  0.48888251  0.69650280    -0.74600
O751        O  0.65918846  0.42571879  0.69999201    -0.74400
O752        O  0.72102687  0.42315528  0.66142269    -0.80100
O753        O  0.65553499  0.37070394  0.70617622    -0.78300
O754        O  0.71838447  0.43135260  0.74854946    -1.14400
O755        O  0.66201828  0.37803106  0.79439849    -0.73600
C756        C  0.67475195  0.39389665  0.83136186     0.97100
C757        C  0.79273435  0.50523128  0.72269664     0.93500
Al758      Al  0.71361805  0.45550843  0.70272845     1.55600
O759        O  0.77459678  0.42986118  0.79625983    -0.78200
C760        C  0.64217100  0.39050477  0.69201590     0.97700
C761        C  0.71182117  0.50198463  0.77658947     0.92500
O762        O  0.72388306  0.48671456  0.80259406    -0.83600
O763        O  0.58834388  0.30478982  0.17034089    -0.83000
C764        C  0.60137432  0.32037934  0.99214940     0.96300
O765        O  0.61795010  0.33889453  0.02633188    -0.72100
O766        O  0.62992018  0.36126186  0.10872272    -0.75700
Al767      Al  0.62155131  0.31640499  0.07801984     1.49000
C768        C  0.60844170  0.37364582  0.12109928     0.91600
O769        O  0.50629872  0.29435892  0.09690946    -0.81900
O770        O  0.50454345  0.21983226  0.08281566    -0.75500
Al771      Al  0.54959871  0.29910069  0.12932796     1.90100
O772        O  0.51558660  0.27947308  0.03073908    -0.74600
O773        O  0.56990792  0.22770005  0.04853021    -0.74400
O774        O  0.57607299  0.28539104  0.99458240    -0.80100
O775        O  0.62658972  0.27843765  0.04569247    -0.78300
O776        O  0.57140828  0.29027738  0.08354568    -1.14400
O777        O  0.62829639  0.29560455  0.12978399    -0.73600
C778        C  0.61588852  0.29839973  0.16691160     0.97100
C779        C  0.49818514  0.28984419  0.05650570     0.93500
Al780      Al  0.54374264  0.25578913  0.04281288     1.55600
O781        O  0.57299712  0.35237686  0.12002295    -0.78200
C782        C  0.60484916  0.24320545  0.03921375     0.97700
C783        C  0.50148382  0.21956755  0.12415410     0.92500
O784        O  0.52419222  0.24831927  0.14587969    -0.83600
O785        O  0.72116529  0.29930979  0.32636718    -0.83000
C786        C  0.72686912  0.32774762  0.50109289     0.96300
O787        O  0.72473525  0.34333479  0.46639160    -0.72100
O788        O  0.73499589  0.36012971  0.38157463    -0.75700
Al789      Al  0.69860866  0.31756114  0.41509683     1.49000
C790        C  0.76911800  0.37205997  0.37123102     0.91600
O791        O  0.79323979  0.29651164  0.40510333    -0.81900
O792        O  0.70785698  0.21651541  0.41742375    -0.75500
Al793      Al  0.75457960  0.29751268  0.36984535     1.90100
O794        O  0.76395001  0.27401321  0.46716556    -0.74600
O795        O  0.65922742  0.23247342  0.45356121    -0.74400
O796        O  0.71767719  0.29264902  0.50119713    -0.80100
O797        O  0.65498071  0.28361161  0.44967739    -0.78300
O798        O  0.72221961  0.29032410  0.41367479    -1.14400
O799        O  0.67142364  0.29333264  0.36336238    -0.73600
C800        C  0.68714948  0.29306647  0.32738229     0.97100
C801        C  0.79375946  0.28843170  0.44476685     0.93500
Al802      Al  0.71302797  0.25679787  0.45602720     1.55600
O803        O  0.78329886  0.35119508  0.37632582    -0.78200
C804        C  0.64087406  0.24925128  0.46036956     0.97700
C805        C  0.71484612  0.21583805  0.37709664     0.92500
O806        O  0.73202194  0.24614531  0.35587910    -0.83600
O807        O  0.77306969  0.06144757  0.16513556    -0.83000
C808        C  0.81128557  0.10148653  0.34234692     0.96300
O809        O  0.81634998  0.12432535  0.31175734    -0.72100
O810        O  0.85360871  0.12656006  0.24076439    -0.75700
Al811      Al  0.80381331  0.11790407  0.25119971     1.49000
C812        C  0.86436484  0.11101053  0.21271155     0.91600
O813        O  0.80887411  0.01865232  0.25066424    -0.81900
O814        O  0.70840738  0.01394124  0.25621058    -0.75500
Al815      Al  0.79029813  0.04148567  0.21001296     1.90100
O816        O  0.76140572  0.00081334  0.29668896    -0.74600
O817        O  0.73122900  0.07393059  0.30865082    -0.74400
O818        O  0.78820364  0.06605897  0.33888001    -0.80100
O819        O  0.75811954  0.11919581  0.26110517    -0.78300
O820        O  0.78170508  0.06717778  0.25242796    -1.14400
O821        O  0.79514529  0.11980847  0.19073660    -0.73600
C822        C  0.78067303  0.09552452  0.16018251     0.97100
C823        C  0.78995261  0.99918699  0.28326793     0.93500
Al824      Al  0.74992331  0.04082513  0.29603977     1.55600
O825        O  0.84128870  0.07857643  0.19782231    -0.78200
C826        C  0.73498050  0.10366269  0.29210630     0.97700
C827        C  0.70946759  0.99523277  0.22335027     0.92500
O828        O  0.74053104  0.99841850  0.21061890    -0.83600
C829        C  0.71567227  0.12295655  0.31228304    -0.07300
C830        C  0.71248545  0.15012299  0.28756933    -0.18500
C831        C  0.70629431  0.17765133  0.30777198     0.09900
C832        C  0.70598218  0.17992149  0.35412970    -0.07300
C833        C  0.70395798  0.14983126  0.37835326    -0.18500
C834        C  0.70750216  0.12070018  0.35785720     0.09900
S835        S  0.70037429  0.20970974  0.27246124    -0.33500
S836        S  0.70462494  0.08375835  0.39272375    -0.33500
H837        H  0.67982821  0.05404339  0.36460824     0.27900
H838        H  0.67612408  0.21474582  0.30150411     0.27900
H839        H  0.71654275  0.15101200  0.25240448     0.18500
H840        H  0.70201453  0.15016225  0.41372381     0.18500
C841        C  0.80425222  0.47655000  0.30834945    -0.07300
C842        C  0.80396111  0.44679088  0.28428671    -0.18500
C843        C  0.79807782  0.41364568  0.30530047     0.09900
C844        C  0.79093189  0.40978825  0.35088547    -0.07300
C845        C  0.79601156  0.44133139  0.37521152    -0.18500
C846        C  0.80379904  0.47499416  0.35456416     0.09900
S847        S  0.79527893  0.37562197  0.27166857    -0.33500
S848        S  0.79912760  0.00633356  0.38712590    -0.33500
H849        H  0.82568856  0.03502486  0.35989766     0.27900
H850        H  0.81408870  0.36492693  0.30174130     0.27900
H851        H  0.80480553  0.44782175  0.24886256     0.18500
H852        H  0.79175149  0.43903743  0.41026107     0.18500
C853        C  0.62570127  0.41108499  0.14294082    -0.07300
C854        C  0.61719349  0.41177404  0.18751649    -0.18500
C855        C  0.64278577  0.44107629  0.21523476     0.09900
C856        C  0.67770852  0.46977801  0.19798316    -0.07300
C857        C  0.68362255  0.47150890  0.15246807    -0.18500
C858        C  0.65785145  0.44268686  0.12481614     0.09900
S859        S  0.63189774  0.43733466  0.27277073    -0.33500
S860        S  0.66887005  0.44611438  0.06717729    -0.33500
H861        H  0.63147661  0.42069110  0.05350089     0.27900
H862        H  0.63977328  0.47526190  0.27663084     0.27900
H863        H  0.59245448  0.38750079  0.20167757     0.18500
H864        H  0.70408328  0.99497770  0.13699863     0.18500
C865        C  0.90299621  0.13239508  0.19314125    -0.07300
C866        C  0.90763272  0.12505359  0.14900944    -0.18500
C867        C  0.94062762  0.14924577  0.12530551     0.09900
C868        C  0.97024788  0.18175223  0.14607565    -0.07300
C869        C  0.96709209  0.18645110  0.19152938    -0.18500
C870        C  0.93384777  0.16276895  0.21498611     0.09900
S871        S  0.94222322  0.13756374  0.06861948    -0.33500
S872        S  0.93128132  0.17243886  0.27241395    -0.33500
H873        H  0.96676138  0.20612975  0.27556059     0.27900
H874        H  0.48705240  0.15059073  0.08133835     0.27900
H875        H  0.88457322  0.10122361  0.13196599     0.18500
H876        H  0.99003387  0.21030438  0.20863838     0.18500
C877        C  0.63414826  0.29492125  0.20688231    -0.07300
C878        C  0.61142398  0.27674585  0.24361438    -0.18500
C879        C  0.62730573  0.27289689  0.28238228     0.09900
C880        C  0.66718476  0.28888362  0.28539897    -0.07300
C881        C  0.68946019  0.30518231  0.24781636    -0.18500
C882        C  0.67371063  0.30895742  0.20914617     0.09900
S883        S  0.59493341  0.24584511  0.32584350    -0.33500
S884        S  0.70633785  0.33485212  0.16535639    -0.33500
H885        H  0.68959717  0.35713157  0.15622848     0.27900
H886        H  0.61596651  0.22879396  0.33928677     0.27900
H887        H  0.58087026  0.26478495  0.24184877     0.18500
H888        H  0.72001517  0.31713447  0.24908805     0.18500
C889        C  0.65113922  0.37804207  0.87127690    -0.07300
C890        C  0.62075676  0.34021356  0.87007221    -0.18500
C891        C  0.60191867  0.32110456  0.90830050     0.09900
C892        C  0.61415544  0.33987135  0.94931407    -0.07300
C893        C  0.64253464  0.37854616  0.94991608    -0.18500
C894        C  0.66081651  0.39778295  0.91189279     0.09900
S895        S  0.56372158  0.27263029  0.90198942    -0.33500
S896        S  0.69659315  0.44726715  0.91860641    -0.33500
H897        H  0.68694808  0.45796602  0.87966652     0.27900
H898        H  0.53814713  0.27858772  0.92758792     0.27900
H899        H  0.61245327  0.32471188  0.83929547     0.18500
H900        H  0.65158318  0.39407558  0.98061222     0.18500
C901        C  0.74039882  0.38303534  0.62573510    -0.07300
C902        C  0.74927614  0.40472659  0.58734143    -0.18500
C903        C  0.74897172  0.38885942  0.54635616     0.09900
C904        C  0.73781527  0.34967189  0.54305359    -0.07300
C905        C  0.73406927  0.32978660  0.58184518    -0.18500
C906        C  0.73603445  0.34610010  0.62288663     0.09900
S907        S  0.76307172  0.42036096  0.50018387    -0.33500
S908        S  0.73050899  0.31698018  0.66958997    -0.33500
H909        H  0.76195635  0.34646635  0.69159141     0.27900
H910        H  0.78473706  0.40564721  0.48097198     0.27900
H911        H  0.75499656  0.43389919  0.58898029     0.18500
H912        H  0.72827030  0.30060922  0.58043890     0.18500
C913        C  0.77358510  0.10855804  0.11820530    -0.07300
C914        C  0.76132372  0.13535975  0.11988089    -0.18500
C915        C  0.75992006  0.15396343  0.08221167     0.09900
C916        C  0.77222996  0.14647627  0.04175905    -0.07300
C917        C  0.78117785  0.11712336  0.03949912    -0.18500
C918        C  0.78207883  0.09821077  0.07713001     0.09900
S919        S  0.74185899  0.18662438  0.08663213    -0.33500
S920        S  0.79713070  0.06347948  0.07067860    -0.33500
H921        H  0.82279347  0.07767016  0.10561509     0.27900
H922        H  0.73196887  0.18097671  0.13124684     0.27900
H923        H  0.75361027  0.14234906  0.15121553     0.18500
H924        H  0.78990162  0.11041620  0.00862915     0.18500
C925        C  0.67172666  0.20617567  0.96905175    -0.07300
C926        C  0.66360971  0.19713582  0.01383216    -0.18500
C927        C  0.63845716  0.20528519  0.03714314     0.09900
C928        C  0.62069065  0.22242656  0.01536346    -0.07300
C929        C  0.62562034  0.22785556  0.97002439    -0.18500
C930        C  0.65024792  0.21932462  0.94651995     0.09900
S931        S  0.63169154  0.19702256  0.09527619    -0.33500
S932        S  0.65598887  0.23012927  0.88904422    -0.33500
H933        H  0.65159342  0.19450200  0.87694779     0.27900
H934        H  0.65184167  0.17729762  0.09869393     0.27900
H935        H  0.67916367  0.18630791  0.03137096     0.18500
H936        H  0.61200307  0.24120308  0.95320771     0.18500
C937        C  0.89763415  0.27484400  0.99614362    -0.07300
C938        C  0.89609523  0.26722250  0.04107303    -0.18500
C939        C  0.92874199  0.27427368  0.06418267     0.09900
C940        C  0.96391182  0.28878887  0.04178692    -0.07300
C941        C  0.96571459  0.29935452  0.99758882    -0.18500
C942        C  0.93297911  0.29211975  0.97456329     0.09900
S943        S  0.42781849  0.27644849  0.11882935    -0.33500
S944        S  0.93579490  0.30208295  0.91679105    -0.33500
H945        H  0.97525430  0.31729290  0.91227269     0.27900
H946        H  0.46016794  0.31176043  0.12880531     0.27900
H947        H  0.86876712  0.25328203  0.05763863     0.18500
H948        H  0.99251123  0.31088266  0.98015858     0.18500
C949        C  0.71536937  0.03689181  0.79390242    -0.07300
C950        C  0.70243310  0.03396746  0.83735958    -0.18500
C951        C  0.70802387  0.06603410  0.86138243     0.09900
C952        C  0.72543935  0.10197012  0.84111803    -0.07300
C953        C  0.73498083  0.10447364  0.79648214    -0.18500
C954        C  0.73082868  0.07263276  0.77291693     0.09900
S955        S  0.69624943  0.05990931  0.91889808    -0.33500
S956        S  0.75048327  0.08076441  0.71839669    -0.33500
H957        H  0.77275273  0.06380818  0.72621187     0.27900
H958        H  0.69379841  0.09309894  0.92454467     0.27900
H959        H  0.68995058  0.00671253  0.85378322     0.18500
H960        H  0.74933754  0.13226981  0.78101918     0.18500
C961        C  0.77471723  0.37750143  0.83219984    -0.07300
C962        C  0.75640072  0.36358515  0.87263989    -0.18500
C963        C  0.76276472  0.33848245  0.89761638     0.09900
C964        C  0.78741926  0.32595051  0.88153162    -0.07300
C965        C  0.80775137  0.34204454  0.84252934    -0.18500
C966        C  0.80194797  0.36784268  0.81798688     0.09900
S967        S  0.73440963  0.31923101  0.94632709    -0.33500
S968        S  0.82690400  0.38389449  0.76662543    -0.33500
H969        H  0.82604037  0.41808559  0.76487471     0.27900
H970        H  0.76539840  0.32554025  0.97228934     0.27900
H971        H  0.73512911  0.37054293  0.88363278     0.18500
H972        H  0.82659473  0.33258362  0.82964076     0.18500
C973        C  0.83195906  0.03415487  0.69827552    -0.07300
C974        C  0.83594060  0.03376993  0.65233130    -0.18500
C975        C  0.86033211  0.06691762  0.62921326     0.09900
C976        C  0.88193855  0.10132908  0.65224913    -0.07300
C977        C  0.88136743  0.10111578  0.69815815    -0.18500
C978        C  0.85701093  0.06788746  0.72145269     0.09900
S979        S  0.85991842  0.06438655  0.57022371    -0.33500
S980        S  0.85631579  0.07179871  0.78009117    -0.33500
H981        H  0.85763899  0.03817521  0.78696741     0.27900
H982        H  0.89599663  0.09666907  0.56368429     0.27900
H983        H  0.81769415  0.00806474  0.63380601     0.18500
H984        H  0.89806774  0.12767491  0.71594890     0.18500
C985        C  0.60787037  0.37198351  0.66399914    -0.07300
C986        C  0.57277987  0.36485399  0.68089203    -0.18500
C987        C  0.53883894  0.34063582  0.65869962     0.09900
C988        C  0.53987061  0.32300924  0.61876568    -0.07300
C989        C  0.57513574  0.33317170  0.59990927    -0.18500
C990        C  0.60903386  0.35712309  0.62222378     0.09900
S991        S  0.99306362  0.32344880  0.70169121    -0.33500
S992        S  0.65347290  0.36681082  0.59786952    -0.33500
H993        H  0.63870515  0.34570755  0.55901873     0.27900
H994        H  0.97018926  0.31660045  0.66464014     0.27900
H995        H  0.57159845  0.37643672  0.71262025     0.18500
H996        H  0.57596861  0.31947459  0.56960705     0.18500
C997        C  0.84794766  0.22896172  0.79344882    -0.07300
C998        C  0.87821632  0.22164810  0.79457009    -0.18500
C999        C  0.89722071  0.22099971  0.75658575     0.09900
C1000       C  0.88552512  0.22719833  0.71538985    -0.07300
C1001       C  0.85680421  0.23697330  0.71462964    -0.18500
C1002       C  0.83836751  0.23843508  0.75293358     0.09900
S1003       S  0.93466023  0.21005668  0.76380838    -0.33500
S1004       S  0.80309078  0.25265406  0.74749411    -0.33500
H1005       H  0.81324474  0.27417434  0.78648116     0.27900
H1006       H  0.96157315  0.24225711  0.74052085     0.27900
H1007       H  0.88640416  0.21480243  0.82528435     0.18500
H1008       H  0.84800036  0.24293617  0.68379406     0.18500
C1009       C  0.60418553  0.22992313  0.48415840    -0.07300
C1010       C  0.57015955  0.21124778  0.46083893    -0.18500
C1011       C  0.53506497  0.19769386  0.48223242     0.09900
C1012       C  0.53394274  0.20494175  0.52770664    -0.07300
C1013       C  0.56785278  0.22012706  0.55145039    -0.18500
C1014       C  0.60280751  0.23230797  0.53020131     0.09900
S1015       S  0.99493625  0.17967696  0.45090571    -0.33500
S1016       S  0.64571927  0.25278551  0.56202280    -0.33500
H1017       H  0.62857814  0.24760056  0.60348709     0.27900
H1018       H  0.97133747  0.15742599  0.48545796     0.27900
H1019       H  0.57095902  0.20790483  0.42568362     0.18500
H1020       H  0.56740737  0.22520177  0.58623497     0.18500
C1021       C  0.82858580  0.29339767  0.46601936    -0.07300
C1022       C  0.85206608  0.28311145  0.44295732    -0.18500
C1023       C  0.87843079  0.27671014  0.46495972     0.09900
C1024       C  0.88077643  0.27962836  0.51122162    -0.07300
C1025       C  0.85962909  0.29298486  0.53371849    -0.18500
C1026       C  0.83458867  0.30105882  0.51152559     0.09900
S1027       S  0.90523874  0.26098791  0.43253745    -0.33500
S1028       S  0.81024234  0.31999027  0.54346772    -0.33500
H1029       H  0.80641197  0.34029945  0.50871815     0.27900
H1030       H  0.93918558  0.28328994  0.45557979     0.27900
H1031       H  0.84808339  0.27744347  0.40809517     0.18500
H1032       H  0.86153959  0.29574477  0.56905520     0.18500
C1033       C  0.83115805  0.11738591  0.38363662    -0.07300
C1034       C  0.81451007  0.13158321  0.41290028    -0.18500
C1035       C  0.83294892  0.15036204  0.45139390     0.09900
C1036       C  0.86888861  0.15496450  0.46088571    -0.07300
C1037       C  0.88556172  0.14061290  0.43178647    -0.18500
C1038       C  0.86720257  0.12195924  0.39304451     0.09900
S1039       S  0.81121596  0.17010184  0.48690264    -0.33500
S1040       S  0.89200525  0.10575505  0.35735953    -0.33500
H1041       H  0.86838734  0.09594125  0.32065189     0.27900
H1042       H  0.78030510  0.16210629  0.45977825     0.27900
H1043       H  0.78736716  0.12876966  0.40487251     0.18500
H1044       H  0.91316294  0.14427641  0.43909958     0.18500
O1045       O  0.92671870  0.71495668  0.67465720    -0.83000
C1046       C  0.88788149  0.67464499  0.50464940     0.96300
O1047       O  0.87519296  0.66277255  0.54257314    -0.72100
O1048       O  0.87582978  0.65420709  0.62789821    -0.75700
Al1049     Al  0.88238146  0.69495373  0.59070667     1.49000
C1050       C  0.89688207  0.64050159  0.63623733     0.91600
O1051       O  0.99769683  0.71176220  0.59235863    -0.81900
O1052       O  0.99853253  0.78587172  0.56923177    -0.75500
Al1053     Al  0.95915202  0.71330821  0.62904601     1.90100
O1054       O  0.98170911  0.71839770  0.52660250    -0.74600
O1055       O  0.93228693  0.77506744  0.54009532    -0.74400
O1056       O  0.91710143  0.70738228  0.49887788    -0.80100
O1057       O  0.87498354  0.72876027  0.55396127    -0.78300
O1058       O  0.93268832  0.71774616  0.58569472    -1.14400
O1059       O  0.88610658  0.72567128  0.63969429    -0.73600
C1060       C  0.90133209  0.72443882  0.67511688     0.97100
C1061       C  0.00177665  0.71142341  0.55125876     0.93500
Al1062     Al  0.95562947  0.74444201  0.53793399     1.55600
O1063       O  0.93188413  0.65897770  0.62742043    -0.78200
C1064       C  0.89691525  0.76072396  0.53710549     0.97700
C1065       C  0.00621025  0.79194417  0.60977512     0.92500
O1066       O  0.98868047  0.76588915  0.63711562    -0.83600
O1067       O  0.78708280  0.70916228  0.83220828    -0.83000
C1068       C  0.77751505  0.66935853  0.00521628     0.96300
O1069       O  0.77871516  0.65588189  0.96801917    -0.72100
O1070       O  0.77168333  0.64560128  0.88161759    -0.75700
Al1071     Al  0.80600894  0.68627558  0.91924374     1.49000
C1072       C  0.73814601  0.63395124  0.86929878     0.91600
O1073       O  0.71185831  0.70804932  0.91033491    -0.81900
O1074       O  0.78492662  0.78137060  0.93613228    -0.75500
Al1075     Al  0.75201437  0.70848889  0.87572403     1.90100
O1076       O  0.73228416  0.71519832  0.97745525    -0.74600
O1077       O  0.83924056  0.76888904  0.96668214    -0.74400
O1078       O  0.78471968  0.70364374  0.00905059    -0.80100
O1079       O  0.84743052  0.72007008  0.95594179    -0.78300
O1080       O  0.78083585  0.71170042  0.92110428    -1.14400
O1081       O  0.83507223  0.71495834  0.87080916    -0.73600
C1082       C  0.82142887  0.71715798  0.83465874     0.97100
C1083       C  0.70610525  0.70823748  0.95102186     0.93500
Al1084     Al  0.78492497  0.73993638  0.96814566     1.55600
O1085       O  0.72298160  0.65409558  0.87572173    -0.78200
C1086       C  0.85961717  0.75368518  0.96948421     0.97700
C1087       C  0.78366922  0.78739830  0.89572482     0.92500
O1088       O  0.77653100  0.76151629  0.86813018    -0.83600
O1089       O  0.71363027  0.92241728  0.83462245    -0.83000
C1090       C  0.72666761  0.89449975  0.66325365     0.96300
O1091       O  0.72373297  0.87867104  0.69967074    -0.72100
O1092       O  0.72656877  0.87238038  0.78631690    -0.75700
Al1093     Al  0.69490709  0.88062464  0.74729001     1.49000
C1094       C  0.76009432  0.89293106  0.79943144     0.91600
O1095       O  0.79242340  0.99489242  0.75808953    -0.81900
O1096       O  0.71438699  0.99576087  0.73550492    -0.75500
Al1097     Al  0.75075748  0.95634247  0.79250635     1.90100
O1098       O  0.76839463  0.98613572  0.69262408    -0.74600
O1099       O  0.66203832  0.92939466  0.70231613    -0.74400
O1100       O  0.71924995  0.92145121  0.66001644    -0.80100
O1101       O  0.65490654  0.87275974  0.70826770    -0.78300
O1102       O  0.72093798  0.93155334  0.74719889    -1.14400
O1103       O  0.66500965  0.88038749  0.79517296    -0.73600
C1104       C  0.67904652  0.89598439  0.83176390     0.97100
C1105       C  0.79620596  0.00292629  0.71779687     0.93500
Al1106     Al  0.71638137  0.95608236  0.70169003     1.55600
O1107       O  0.77726728  0.92823160  0.79209606    -0.78200
C1108       C  0.64269178  0.89404727  0.69568420     0.97700
C1109       C  0.71929699  0.00478471  0.77565037     0.92500
O1110       O  0.72979775  0.98796509  0.80142386    -0.83600
O1111       O  0.58784416  0.80078654  0.16895895    -0.83000
C1112       C  0.60290271  0.82143089  0.99132107     0.96300
O1113       O  0.61873248  0.83882008  0.02626364    -0.72100
O1114       O  0.62946105  0.85885326  0.10924518    -0.75700
Al1115     Al  0.62143957  0.81461694  0.07693716     1.49000
C1116       C  0.60764206  0.87066601  0.12242939     0.91600
O1117       O  0.50569244  0.79113859  0.09662710    -0.81900
O1118       O  0.50304436  0.71951181  0.07782072    -0.75500
Al1119     Al  0.54929836  0.79563468  0.12839208     1.90100
O1120       O  0.51750163  0.78189641  0.02900137    -0.74600
O1121       O  0.56830924  0.72670749  0.04457350    -0.74400
O1122       O  0.57742014  0.78642383  0.99237259    -0.80100
O1123       O  0.62583231  0.77668561  0.04356056    -0.78300
O1124       O  0.57139968  0.78877349  0.08174298    -1.14400
O1125       O  0.62761308  0.79221368  0.12758753    -0.73600
C1126       C  0.61513734  0.79417244  0.16491958     0.97100
C1127       C  0.49869811  0.78950652  0.05600706     0.93500
Al1128     Al  0.54378560  0.75608861  0.03956113     1.55600
O1129       O  0.57217843  0.84911249  0.12143199    -0.78200
C1130       C  0.60338912  0.74159084  0.03657241     0.97700
C1131       C  0.50047325  0.71776932  0.11919514     0.92500
O1132       O  0.52510637  0.74417505  0.14218126    -0.83600
O1133       O  0.71897337  0.79388422  0.32438233    -0.83000
C1134       C  0.72484784  0.82523014  0.49851827     0.96300
O1135       O  0.72250177  0.84027093  0.46345342    -0.72100
O1136       O  0.73269486  0.85585068  0.37838898    -0.75700
Al1137     Al  0.69658331  0.81389879  0.41233280     1.49000
C1138       C  0.76661976  0.86783705  0.36727757     0.91600
O1139       O  0.79164951  0.79347098  0.40355875    -0.81900
O1140       O  0.70470471  0.71290644  0.41739265    -0.75500
Al1141     Al  0.75260027  0.79329651  0.36801471     1.90100
O1142       O  0.76225409  0.77059487  0.46546469    -0.74600
O1143       O  0.65729507  0.72989347  0.45416863    -0.74400
O1144       O  0.71661511  0.79046443  0.49922709    -0.80100
O1145       O  0.65298250  0.78071498  0.44687383    -0.78300
O1146       O  0.72028982  0.78678161  0.41189438    -1.14400
O1147       O  0.66949405  0.78901288  0.36091180    -0.73600
C1148       C  0.68509623  0.78790731  0.32520237     0.97100
C1149       C  0.79216089  0.78532227  0.44316299     0.93500
Al1150     Al  0.71116674  0.75386629  0.45509905     1.55600
O1151       O  0.78117251  0.84727159  0.37235413    -0.78200
C1152       C  0.63894488  0.74687051  0.45934567     0.97700
C1153       C  0.71181025  0.71162505  0.37728225     0.92500
O1154       O  0.73008908  0.74161408  0.35571564    -0.83600
O1155       O  0.77234473  0.56194748  0.16926299    -0.83000
C1156       C  0.80918806  0.59919648  0.34737590     0.96300
O1157       O  0.81439461  0.62267100  0.31739612    -0.72100
O1158       O  0.85192025  0.62717587  0.24658938    -0.75700
Al1159     Al  0.80201456  0.61725372  0.25651910     1.49000
C1160       C  0.86357052  0.61422482  0.21660065     0.91600
O1161       O  0.81180498  0.52187924  0.25359661    -0.81900
O1162       O  0.70884105  0.51210158  0.25849410    -0.75500
Al1163     Al  0.79126750  0.54292417  0.21330598     1.90100
O1164       O  0.76337529  0.50078073  0.29900759    -0.74600
O1165       O  0.72843094  0.57018790  0.31206819    -0.74400
O1166       O  0.78603960  0.56393872  0.34307799    -0.80100
O1167       O  0.75575894  0.61684585  0.26618000    -0.78300
O1168       O  0.78115629  0.56685912  0.25643496    -1.14400
O1169       O  0.79356080  0.61998115  0.19572379    -0.73600
C1170       C  0.77952352  0.59596381  0.16473148     0.97100
C1171       C  0.79342483  0.50176814  0.28608879     0.93500
Al1172     Al  0.74921672  0.53893180  0.29924976     1.55600
O1173       O  0.84151386  0.58195796  0.20056309    -0.78200
C1174       C  0.73167064  0.59982318  0.29584796     0.97700
C1175       C  0.71100984  0.49447089  0.22529741     0.92500
O1176       O  0.74254482  0.49810944  0.21377862    -0.83600
C1177       C  0.71060372  0.61755368  0.31481077    -0.07300
C1178       C  0.70714008  0.64414951  0.28932319    -0.18500
C1179       C  0.70158900  0.67226201  0.30882125     0.09900
C1180       C  0.70156637  0.67515652  0.35509281    -0.07300
C1181       C  0.69881234  0.64507589  0.38000081    -0.18500
C1182       C  0.70232928  0.61570617  0.36024736     0.09900
S1183       S  0.69686390  0.70463223  0.27280179    -0.33500
S1184       S  0.70032781  0.57962523  0.39588948    -0.33500
H1185       H  0.67671144  0.54933635  0.36770459     0.27900
H1186       H  0.67323864  0.71083394  0.30159395     0.27900
H1187       H  0.71129693  0.64462585  0.25419187     0.18500
H1188       H  0.69693718  0.64590215  0.41534822     0.18500
C1189       C  0.79869195  0.97229718  0.30560888    -0.07300
C1190       C  0.79997915  0.94346033  0.28114331    -0.18500
C1191       C  0.79494700  0.91032260  0.30161025     0.09900
C1192       C  0.78776175  0.90575587  0.34718189    -0.07300
C1193       C  0.79078045  0.93628740  0.37182860    -0.18500
C1194       C  0.79667648  0.96949199  0.35179694     0.09900
S1195       S  0.79327059  0.87311230  0.26734377    -0.33500
S1196       S  0.81091601  0.51428773  0.38890770    -0.33500
H1197       H  0.83578146  0.54182777  0.35905482     0.27900
H1198       H  0.81141995  0.86182946  0.29764316     0.27900
H1199       H  0.80164093  0.94521572  0.24577150     0.18500
H1200       H  0.78583987  0.93323259  0.40675567     0.18500
C1201       C  0.62449110  0.90796128  0.14461596    -0.07300
C1202       C  0.61757899  0.90815678  0.18974341    -0.18500
C1203       C  0.64268129  0.93864928  0.21652476     0.09900
C1204       C  0.67536841  0.96938191  0.19771915    -0.07300
C1205       C  0.67949285  0.97105627  0.15190609    -0.18500
C1206       C  0.65442517  0.94075406  0.12523889     0.09900
S1207       S  0.63473945  0.93405189  0.27468266    -0.33500
S1208       S  0.66378920  0.94414392  0.06717023    -0.33500
H1209       H  0.62670377  0.91652516  0.05476397     0.27900
H1210       H  0.64152147  0.97145867  0.28037409     0.27900
H1211       H  0.59468865  0.88286608  0.20485418     0.18500
H1212       H  0.70971011  0.49429675  0.13859019     0.18500
C1213       C  0.90189286  0.63821297  0.19685294    -0.07300
C1214       C  0.91054638  0.62600467  0.15705829    -0.18500
C1215       C  0.94318345  0.65001637  0.13254119     0.09900
C1216       C  0.96812826  0.68722421  0.14796874    -0.07300
C1217       C  0.96046012  0.69846305  0.18881239    -0.18500
C1218       C  0.92800752  0.67499350  0.21314263     0.09900
S1219       S  0.95101584  0.63164776  0.08202972    -0.33500
S1220       S  0.92015006  0.69476793  0.26293507    -0.33500
H1221       H  0.95754698  0.72519955  0.26832464     0.27900
H1222       H  0.50149725  0.65489223  0.09714293     0.27900
H1223       H  0.89108170  0.59792693  0.14394057     0.18500
H1224       H  0.97896779  0.72710696  0.20098518     0.18500
C1225       C  0.63293808  0.78951124  0.20446878    -0.07300
C1226       C  0.60997375  0.77183644  0.24120405    -0.18500
C1227       C  0.62550469  0.76788841  0.28012159     0.09900
C1228       C  0.66524988  0.78314939  0.28314777    -0.07300
C1229       C  0.68767966  0.79849568  0.24544337    -0.18500
C1230       C  0.67227561  0.80242539  0.20663403     0.09900
S1231       S  0.59289900  0.74203401  0.32391237    -0.33500
S1232       S  0.70517682  0.82730180  0.16269227    -0.33500
H1233       H  0.69020391  0.85126323  0.15419998     0.27900
H1234       H  0.61333527  0.72462254  0.33828506     0.27900
H1235       H  0.57958333  0.76065855  0.23945750     0.18500
H1236       H  0.71806836  0.80977407  0.24676484     0.18500
C1237       C  0.65573769  0.88064594  0.87206253    -0.07300
C1238       C  0.62261978  0.84451899  0.86997154    -0.18500
C1239       C  0.60283467  0.82543076  0.90777499     0.09900
C1240       C  0.61702154  0.84211086  0.94929234    -0.07300
C1241       C  0.64836006  0.87941035  0.95101008    -0.18500
C1242       C  0.66739449  0.89891927  0.91333989     0.09900
S1243       S  0.56029242  0.77989537  0.90021649    -0.33500
S1244       S  0.70644855  0.94678976  0.92119364    -0.33500
H1245       H  0.69724984  0.96089443  0.88452395     0.27900
H1246       H  0.53869079  0.78825999  0.92984967     0.27900
H1247       H  0.61248451  0.83031387  0.83868661     0.18500
H1248       H  0.65903464  0.89353667  0.98220896     0.18500
C1249       C  0.73599039  0.88005172  0.62287723    -0.07300
C1250       C  0.74295714  0.90117038  0.58429975    -0.18500
C1251       C  0.74322317  0.88564147  0.54338212     0.09900
C1252       C  0.73479955  0.84725415  0.54028612    -0.07300
C1253       C  0.73239127  0.82792596  0.57915953    -0.18500
C1254       C  0.73373920  0.84403402  0.62015898     0.09900
S1255       S  0.75427255  0.91654091  0.49702351    -0.33500
S1256       S  0.73076390  0.81601097  0.66697030    -0.33500
H1257       H  0.76195212  0.84665162  0.68796605     0.27900
H1258       H  0.77898874  0.90529834  0.47840132     0.27900
H1259       H  0.74708522  0.92977021  0.58574590     0.18500
H1260       H  0.72823024  0.79933095  0.57787045     0.18500
C1261       C  0.77280275  0.60914193  0.12250713    -0.07300
C1262       C  0.76036288  0.63582832  0.12349934    -0.18500
C1263       C  0.75873514  0.65387109  0.08533025     0.09900
C1264       C  0.77088951  0.64590285  0.04502716    -0.07300
C1265       C  0.78036556  0.61690677  0.04359287    -0.18500
C1266       C  0.78166899  0.59869719  0.08169025     0.09900
S1267       S  0.74064409  0.68650586  0.08894043    -0.33500
S1268       S  0.79810870  0.56497515  0.07628517    -0.33500
H1269       H  0.82500236  0.58151875  0.10996300     0.27900
H1270       H  0.72684233  0.67793323  0.13213594     0.27900
H1271       H  0.75267122  0.64317839  0.15461781     0.18500
H1272       H  0.78921629  0.60997651  0.01296634     0.18500
C1273       C  0.66996312  0.70373718  0.96926662    -0.07300
C1274       C  0.66321925  0.69684887  0.01456143    -0.18500
C1275       C  0.63805655  0.70519157  0.03722997     0.09900
C1276       C  0.61873652  0.71998266  0.01417738    -0.07300
C1277       C  0.62175659  0.72248287  0.96849994    -0.18500
C1278       C  0.64656938  0.71388331  0.94566031     0.09900
S1279       S  0.63325572  0.70034919  0.09593583    -0.33500
S1280       S  0.64959444  0.72036440  0.88730763    -0.33500
H1281       H  0.64756393  0.68517374  0.87861297     0.27900
H1282       H  0.65454937  0.68194024  0.10080745     0.27900
H1283       H  0.67995233  0.68787085  0.03287155     0.18500
H1284       H  0.60664058  0.73379066  0.95078072     0.18500
C1285       C  0.89684658  0.77328736  0.99157728    -0.07300
C1286       C  0.89761071  0.77324570  0.03749025    -0.18500
C1287       C  0.93084618  0.78161442  0.06022657     0.09900
C1288       C  0.96411309  0.78952742  0.03653444    -0.07300
C1289       C  0.96393781  0.79332235  0.99062080    -0.18500
C1290       C  0.93067417  0.78480405  0.96803891     0.09900
S1291       S  0.42878010  0.77547574  0.12013982    -0.33500
S1292       S  0.93079578  0.78614965  0.90896459    -0.33500
H1293       H  0.97001283  0.80053275  0.90308701     0.27900
H1294       H  0.46158337  0.81052559  0.12974736     0.27900
H1295       H  0.87149583  0.76426567  0.05568985     0.18500
H1296       H  0.98935896  0.80042009  0.97192682     0.18500
C1297       C  0.70673154  0.53353793  0.79423883    -0.07300
C1298       C  0.69232915  0.53018668  0.83707762    -0.18500
C1299       C  0.69891774  0.56233138  0.86175848     0.09900
C1300       C  0.71919165  0.59871818  0.84276093    -0.07300
C1301       C  0.72938577  0.60169423  0.79835364    -0.18500
C1302       C  0.72385630  0.56971618  0.77409606     0.09900
S1303       S  0.68421209  0.55546657  0.91838099    -0.33500
S1304       S  0.74382658  0.57794824  0.71977473    -0.33500
H1305       H  0.76607045  0.56108029  0.72803930     0.27900
H1306       H  0.68396689  0.58986035  0.92375061     0.27900
H1307       H  0.67793473  0.50265136  0.85242287     0.18500
H1308       H  0.74518404  0.62968645  0.78368217     0.18500
C1309       C  0.77606456  0.87540728  0.82841478    -0.07300
C1310       C  0.75906217  0.86355265  0.86986271    -0.18500
C1311       C  0.76481420  0.83830893  0.89537645     0.09900
C1312       C  0.78758170  0.82363140  0.87896088    -0.07300
C1313       C  0.80692584  0.83789530  0.83893579    -0.18500
C1314       C  0.80159669  0.86365593  0.81368695     0.09900
S1315       S  0.73794819  0.82169367  0.94545980    -0.33500
S1316       S  0.82492812  0.87707495  0.76112937    -0.33500
H1317       H  0.82491943  0.91162327  0.75775111     0.27900
H1318       H  0.76957621  0.82818671  0.97033237     0.27900
H1319       H  0.73917583  0.87224023  0.88134766     0.18500
H1320       H  0.82460080  0.82705580  0.82591561     0.18500
C1321       C  0.82869223  0.53727210  0.70513233    -0.07300
C1322       C  0.83636610  0.53600825  0.66023827    -0.18500
C1323       C  0.86168575  0.56897039  0.63740114     0.09900
C1324       C  0.88011291  0.60414255  0.65974145    -0.07300
C1325       C  0.87525259  0.60510191  0.70516969    -0.18500
C1326       C  0.85016935  0.57205415  0.72821626     0.09900
S1327       S  0.86607009  0.56508435  0.57904616    -0.33500
S1328       S  0.84322722  0.57734961  0.78554876    -0.33500
H1329       H  0.84766715  0.54640981  0.79774263     0.27900
H1330       H  0.90231115  0.59759343  0.57482368     0.27900
H1331       H  0.82039736  0.50954984  0.64201144     0.18500
H1332       H  0.88916826  0.63229755  0.72234363     0.18500
C1333       C  0.60707969  0.87703228  0.67028021    -0.07300
C1334       C  0.57233697  0.86355953  0.69219146    -0.18500
C1335       C  0.53791717  0.83955624  0.67089046     0.09900
C1336       C  0.53824497  0.82752906  0.62719127    -0.07300
C1337       C  0.57271488  0.84419591  0.60410886    -0.18500
C1338       C  0.60710547  0.86883510  0.62521348     0.09900
S1339       S  0.99395333  0.82645042  0.69973805    -0.33500
S1340       S  0.65111082  0.88729898  0.59507305    -0.33500
H1341       H  0.63501583  0.87348328  0.55365745     0.27900
H1342       H  0.97095868  0.81823744  0.66252538     0.27900
H1343       H  0.57207847  0.87031513  0.72655807     0.18500
H1344       H  0.57310949  0.83515122  0.57072675     0.18500
C1345       C  0.84527768  0.72624446  0.79458260    -0.07300
C1346       C  0.87755317  0.72215513  0.79617651    -0.18500
C1347       C  0.89842819  0.72457685  0.75863773     0.09900
C1348       C  0.88642684  0.73029509  0.71740625    -0.07300
C1349       C  0.85584120  0.73728974  0.71634013    -0.18500
C1350       C  0.83560656  0.73589748  0.75421366     0.09900
S1351       S  0.93887029  0.71834288  0.76643580    -0.33500
S1352       S  0.79791975  0.74666565  0.74821567    -0.33500
H1353       H  0.80706986  0.76853853  0.78682807     0.27900
H1354       H  0.96338544  0.75001518  0.74084832     0.27900
H1355       H  0.88613742  0.71571515  0.82688256     0.18500
H1356       H  0.84676648  0.74293779  0.68549460     0.18500
C1357       C  0.60224428  0.72861767  0.48317287    -0.07300
C1358       C  0.56835033  0.71402347  0.45981057    -0.18500
C1359       C  0.53378776  0.70291027  0.48139517     0.09900
C1360       C  0.53326674  0.70876459  0.52730188    -0.07300
C1361       C  0.56670394  0.72001637  0.55093629    -0.18500
C1362       C  0.60105415  0.72968010  0.52934921     0.09900
S1363       S  0.99061142  0.67574042  0.45326761    -0.33500
S1364       S  0.64376522  0.74579211  0.56084297    -0.33500
H1365       H  0.62796594  0.74554081  0.60206132     0.27900
H1366       H  0.96681302  0.65502837  0.48845630     0.27900
H1367       H  0.56893002  0.71205725  0.42444943     0.18500
H1368       H  0.56658190  0.72396369  0.58600778     0.18500
C1369       C  0.82723618  0.79101537  0.46460806    -0.07300
C1370       C  0.85112130  0.78086332  0.44215695    -0.18500
C1371       C  0.87789919  0.77541595  0.46475395     0.09900
C1372       C  0.88010479  0.77898770  0.51098292    -0.07300
C1373       C  0.85863093  0.79235880  0.53272931    -0.18500
C1374       C  0.83334165  0.79967421  0.50989463     0.09900
S1375       S  0.90561591  0.76020236  0.43325336    -0.33500
S1376       S  0.80893753  0.81916589  0.54069731    -0.33500
H1377       H  0.80473477  0.83844084  0.50507608     0.27900
H1378       H  0.93927851  0.78324238  0.45650377     0.27900
H1379       H  0.84724019  0.77466878  0.40740102     0.18500
H1380       H  0.86052245  0.79576815  0.56799203     0.18500
C1381       C  0.82974277  0.61364384  0.38867680    -0.07300
C1382       C  0.80874618  0.61141184  0.42614183    -0.18500
C1383       C  0.82686853  0.62990935  0.46503913     0.09900
C1384       C  0.86713797  0.65104451  0.46635060    -0.07300
C1385       C  0.88795094  0.65171358  0.42920567    -0.18500
C1386       C  0.86973149  0.63248357  0.39081060     0.09900
S1387       S  0.79798210  0.62895137  0.51096821    -0.33500
S1388       S  0.89922969  0.63224983  0.34651950    -0.33500
H1389       H  0.87080828  0.60170515  0.32246046     0.27900
H1390       H  0.76232771  0.60717262  0.49094040     0.27900
H1391       H  0.77807463  0.59653304  0.42418519     0.18500
H1392       H  0.91864567  0.66745881  0.43003128     0.18500
loop_ 
_geom_bond_atom_site_label_1 
_geom_bond_atom_site_label_2 
_geom_bond_distance 
_geom_bond_site_symmetry_2 
_ccdc_geom_bond_type 
O1           C16   1.268       .  A
O1           Al9   1.934       .  S
C2           O12   1.271       .  A
C2            O3   1.263       .  A
C2          C340   1.472       .  S
O3           Al5   1.885       .  S
O4            C6   1.263       .  A
O4           Al5   1.922       .  S
Al5          O13   1.920       .  S
Al5          O15   1.893       .  S
Al5          O14   1.777       .  S
C6           O19   1.261       .  A
C6          C280   1.468       .  S
O7           C17   1.268       .  A
O7           Al9   1.949       .  S
O8           C21   1.272       .  A
O8          Al18   1.958       .  S
Al9          O22   1.861       .  S
Al9          O19   1.902       .  S
Al9          O14   1.781       .  S
O10          C17   1.251       .  A
O10         Al18   1.866       .  S
O11          C20   1.258       .  A
O11         Al18   1.904       .  S
O12         Al18   1.933       .  S
O13          C20   1.260       .  A
O14         Al18   1.778       .  S
O15          C16   1.265       .  A
C16         C304   1.490       .  S
C17        C1012   1.491       .  S
C20         C328   1.478       .  S
C21          O22   1.254       .  A
C21         C988   1.479       .  S
O23          C38   1.269       .  A
O23         Al31   1.935       .  S
C24          O34   1.269       .  A
C24          O25   1.266   1_554  A
C24         C220   1.487       .  S
O25         Al27   1.900       .  S
O26          C28   1.259       .  A
O26         Al27   1.912       .  S
Al27         O35   1.909       .  S
Al27         O37   1.891       .  S
Al27         O36   1.779       .  S
C28          O41   1.259       .  A
C28         C256   1.469       .  S
O29          C39   1.266       .  A
O29         Al31   1.941       .  S
O30          C43   1.267       .  A
O30         Al40   1.946       .  S
Al31         O44   1.873       .  S
Al31         O41   1.904       .  S
Al31         O36   1.783       .  S
O32          C39   1.256       .  A
O32         Al40   1.879       .  S
O33          C42   1.260       .  A
O33         Al40   1.911       .  S
O34         Al40   1.928   1_554  S
O35          C42   1.259       .  A
O36         Al40   1.782       .  S
O37          C38   1.265       .  A
C38         C301   1.487       .  S
C39         C229   1.496       .  S
C42         C241   1.474       .  S
C43          O44   1.255       .  A
C43         C268   1.487       .  S
O45          C60   1.272       .  A
O45         Al53   1.929       .  S
C46          O56   1.276       .  A
C46          O47   1.265       .  A
C46         C205   1.489       .  S
O47         Al49   1.886       .  S
O48          C50   1.256       .  A
O48         Al49   1.913       .  S
Al49         O57   1.920       .  S
Al49         O59   1.890       .  S
Al49         O58   1.784       .  S
C50          O63   1.258       .  A
C50         C265   1.477       .  S
O51          C61   1.264       .  A
O51         Al53   1.932       .  S
O52          C65   1.267       .  A
O52         Al62   1.939       .  S
Al53         O66   1.876       .  S
Al53         O63   1.914       .  S
Al53         O58   1.784       .  S
O54          C61   1.252       .  A
O54         Al62   1.855       .  S
O55          C64   1.256       .  A
O55         Al62   1.913       .  S
O56         Al62   1.937       .  S
O57          C64   1.256       .  A
O58         Al62   1.780       .  S
O59          C60   1.270       .  A
C60         C193   1.481       .  S
C61         C625   1.486       .  S
C64         C289   1.479       .  S
C65          O66   1.256       .  A
C65         C601   1.490       .  S
O67          C82   1.271       .  A
O67         Al75   1.938       .  S
C68          O78   1.269       .  A
C68          O69   1.264   1_556  A
C68         C196   1.484       .  S
O69         Al71   1.875       .  S
O70          C72   1.260       .  A
O70         Al71   1.913       .  S
Al71         O79   1.912       .  S
Al71         O81   1.891       .  S
Al71         O80   1.771       .  S
C72          O85   1.257       .  A
C72         C157   1.468       .  S
O73          C83   1.269   1_455  A
O73         Al75   1.956       .  S
O74          C87   1.269       .  A
O74         Al84   1.952       .  S
Al75         O88   1.851       .  S
Al75         O85   1.896       .  S
Al75         O80   1.776       .  S
O76          C83   1.256   1_455  A
O76         Al84   1.873       .  S
O77          C86   1.262       .  A
O77         Al84   1.916       .  S
O78         Al84   1.934   1_556  S
O79          C86   1.260       .  A
O80         Al84   1.782       .  S
O81          C82   1.264       .  A
C82         C181   1.483       .  S
C83         C940   1.495       .  S
C86         C232   1.474       .  S
C87          O88   1.252       .  A
C87         C868   1.493   1_455  S
O89         C104   1.276       .  A
O89         Al97   1.938       .  S
C90         O100   1.278       .  A
C90          O91   1.267       .  A
C90         C208   1.490       .  S
O91         Al93   1.881       .  S
O92          C94   1.255       .  A
O92         Al93   1.908       .  S
Al93        O101   1.916       .  S
Al93        O103   1.893       .  S
Al93        O102   1.787       .  S
C94         O107   1.251       .  A
C94         C148   1.470       .  S
O95         C105   1.262       .  A
O95         Al97   1.931       .  S
O96         C109   1.266       .  A
O96        Al106   1.930       .  S
Al97        O110   1.846       .  S
Al97        O107   1.897       .  S
Al97        O102   1.789       .  S
O98         C105   1.250       .  A
O98        Al106   1.862       .  S
O99         C108   1.249       .  A
O99        Al106   1.898       .  S
O100       Al106   1.940       .  S
O101        C108   1.253       .  A
O102       Al106   1.784       .  S
O103        C104   1.269       .  A
C104        C184   1.490       .  S
C105        C325   1.483       .  S
C108        C313   1.475       .  S
C109        O110   1.250       .  A
C109        C136   1.481       .  S
O111        C126   1.266       .  A
O111       Al119   1.905       .  S
C112        O122   1.261       .  A
C112        O113   1.266       .  A
C112        C337   1.463       .  S
O113       Al115   1.912       .  S
O114        C116   1.253       .  A
O114       Al115   1.891       .  S
Al115       O123   1.896       .  S
Al115       O125   1.905       .  S
Al115       O124   1.781       .  S
C116        O129   1.255       .  A
C116        C169   1.495       .  S
O117        C127   1.267       .  A
O117       Al119   1.929       .  S
O118        C131   1.261   1_545  A
O118       Al128   1.908       .  S
Al119       O132   1.906   1_545  S
Al119       O129   1.903       .  S
Al119       O124   1.792       .  S
O120        C127   1.261       .  A
O120       Al128   1.900       .  S
O121        C130   1.247       .  A
O121       Al128   1.875       .  S
O122       Al128   1.880       .  S
O123        C130   1.255       .  A
O124       Al128   1.794       .  S
O125        C126   1.267       .  A
C126        C217   1.479       .  S
C127        C493   1.479   1_545  S
C130        C133   1.480       .  S
C131        O132   1.262       .  A
C131        C508   1.475       .  S
C133        C134   1.399       .  A
C133        C138   1.421       .  A
C134        C135   1.394       .  A
C134        H143   1.084       .  S
C135        C136   1.421       .  A
C135        S139   1.804       .  S
C136        C137   1.399       .  A
C137        C138   1.399       .  A
C137        H144   1.084       .  S
C138        S140   1.801       .  S
S139        H142   1.407       .  S
S140        H141   1.408       .  S
C145        C475   1.473       .  S
C145        C146   1.399       .  A
C145        C150   1.414       .  A
C146        C147   1.401       .  A
C146        H155   1.084       .  S
C147        C148   1.415       .  A
C147        S151   1.798       .  S
C148        C149   1.396       .  A
C149        C150   1.396       .  A
C149        H156   1.083       .  S
C150        S500   1.797       .  S
S151        H154   1.405       .  S
S152        C498   1.793   1_545  S
S152        H153   1.402       .  S
C157        C158   1.406       .  A
C157        C162   1.406       .  A
C158        C159   1.402       .  A
C158        H167   1.084       .  S
C159        C160   1.411       .  A
C159        S163   1.800       .  S
C160        C479   1.475       .  S
C160        C161   1.406       .  A
C161        C162   1.396       .  A
C161        H516   1.084       .  S
C162        S164   1.804       .  S
S163        H166   1.406       .  S
S164        H165   1.407       .  S
H168        C509   1.084       .  S
C169        C170   1.413       .  A
C169        C174   1.414       .  A
C170        C171   1.406       .  A
C170        H179   1.082       .  S
C171        C172   1.412       .  A
C171        S175   1.800       .  S
C172        C783   1.497       .  S
C172        C173   1.411       .  A
C173        C174   1.398       .  A
C173        H180   1.082       .  S
C174        S176   1.808       .  S
S175        H874   1.407       .  S
S176        H177   1.407       .  S
H178        S871   1.408       .  S
C181        C182   1.405       .  A
C181        C186   1.415       .  A
C182        C183   1.400       .  A
C182        H191   1.082       .  S
C183        C184   1.417       .  A
C183        S187   1.803       .  S
C184        C185   1.406       .  A
C185        C186   1.397       .  A
C185        H192   1.080       .  S
C186        S188   1.803       .  S
S187        H190   1.408       .  S
S188        H189   1.408       .  S
C193        C194   1.406       .  A
C193        C198   1.416       .  A
C194        C195   1.397       .  A
C194        H203   1.083       .  S
C195        C196   1.417       .  A
C195        S199   1.802       .  S
C196        C197   1.406       .  A
C197        C198   1.391       .  A
C197        H204   1.083       .  S
C198        S200   1.802       .  S
S199        H202   1.408       .  S
S200        H201   1.400       .  S
C205        C206   1.405       .  A
C205        C210   1.418       .  A
C206        C207   1.397       .  A
C206        H215   1.084       .  S
C207        C208   1.418       .  A
C207        S211   1.802       .  S
C208        C209   1.405       .  A
C209        C210   1.398       .  A
C209        H216   1.083       .  S
C210        S212   1.801       .  S
S211        H214   1.408       .  S
S212        H213   1.406       .  S
C217        C218   1.403       .  A
C217        C222   1.414       .  A
C218        C219   1.402       .  A
C218        H227   1.083       .  S
C219        C220   1.417       .  A
C219        S223   1.809       .  S
C220        C221   1.407       .  A
C221        C222   1.400       .  A
C221        H228   1.084       .  S
C222        S224   1.802       .  S
S223        H226   1.406       .  S
S224        H225   1.404       .  S
C229        C230   1.413   1_556  A
C229        C234   1.418       .  A
C230        C231   1.406       .  A
C230        H239   1.081       .  S
C231        C232   1.403       .  A
C231        S235   1.806       .  S
C232        C233   1.403   1_554  A
C233        C234   1.403       .  A
C233        H240   1.084       .  S
C234        S236   1.800       .  S
S235        H238   1.407       .  S
S236        H237   1.408       .  S
C241        C242   1.404   1_556  A
C241        C246   1.404       .  A
C242        C243   1.404       .  A
C242        H251   1.084       .  S
C243        C244   1.416       .  A
C243        S943   1.799       .  S
C244        C779   1.493       .  S
C244        C245   1.413   1_554  A
C245        C246   1.404       .  A
C245        H252   1.083       .  S
C246        S248   1.807       .  S
S247        C939   1.800       .  S
S247        H250   1.407       .  S
S248        H249   1.407       .  S
C253        C413   1.487       .  S
C253        C254   1.409       .  A
C253        C258   1.415       .  A
C254        C255   1.399       .  A
C254        H263   1.077       .  S
C255        C256   1.405       .  A
C255        S259   1.805       .  S
C256        C257   1.404       .  A
C257        C258   1.403       .  A
C257        H264   1.084       .  S
C258        S260   1.801       .  S
S259        H262   1.405       .  S
S260        H261   1.407       .  S
C265        C266   1.406       .  A
C265        C270   1.409       .  A
C266        C267   1.402       .  A
C266        H275   1.085       .  S
C267        C268   1.414       .  A
C267        S271   1.801       .  S
C268        C269   1.410       .  A
C269        C270   1.404       .  A
C269        H276   1.083       .  S
C270        S272   1.802       .  S
S271        H274   1.407       .  S
S272        H273   1.404       .  S
C277        C409   1.488       .  S
C277        C278   1.411       .  A
C277        C282   1.415       .  A
C278        C279   1.397       .  A
C278        H287   1.084       .  S
C279        C280   1.404       .  A
C279        S283   1.805       .  S
C280        C281   1.405       .  A
C281        C282   1.403       .  A
C281        H288   1.085       .  S
C282        S284   1.800       .  S
S283        H286   1.405       .  S
S284        H285   1.407       .  S
C289        C290   1.399       .  A
C289        C294   1.414       .  A
C290        C291   1.403       .  A
C290        H299   1.084       .  S
C291        C292   1.420       .  A
C291        S991   1.805   1_455  S
C292        C717   1.484       .  S
C292        C293   1.401       .  A
C293        C294   1.405       .  A
C293        H300   1.083       .  S
C294        S296   1.803       .  S
S295        C987   1.805       .  S
S295        H298   1.407       .  S
S296        H297   1.406       .  S
C301        C302   1.405       .  A
C301        C306   1.416       .  A
C302        C303   1.397       .  A
C302        H311   1.084       .  S
C303        C304   1.418       .  A
C303        S307   1.802       .  S
C304        C305   1.408       .  A
C305        C306   1.399       .  A
C305        H312   1.084       .  S
C306        S308   1.803       .  S
S307        H310   1.408       .  S
S308        H309   1.405       .  S
C313        C314   1.396       .  A
C313        C318   1.412       .  A
C314        C315   1.401       .  A
C314        H323   1.084       .  S
C315        C316   1.422       .  A
C315       S1015   1.802   1_455  S
C316        C713   1.488       .  S
C316        C317   1.402       .  A
C317        C318   1.404       .  A
C317        H324   1.082       .  S
C318        S320   1.802       .  S
S319       C1011   1.803       .  S
S319        H322   1.408       .  S
S320        H321   1.406       .  S
C325        C326   1.401       .  A
C325        C330   1.418       .  A
C326        C327   1.403       .  A
C326        H335   1.084       .  S
C327        C328   1.417       .  A
C327        S331   1.799       .  S
C328        C329   1.398       .  A
C329        C330   1.400       .  A
C329        H336   1.084       .  S
C330        S332   1.802       .  S
S331        H334   1.405       .  S
S332        H333   1.407       .  S
C337        C338   1.399       .  A
C337        C342   1.410       .  A
C338        C339   1.401       .  A
C338        H347   1.081       .  S
C339        C340   1.415       .  A
C339        S343   1.809       .  S
C340        C341   1.401       .  A
C341        C342   1.397       .  A
C341        H348   1.081       .  S
C342        S344   1.805       .  S
S343        H346   1.407       .  S
S344        H345   1.403       .  S
O349        C364   1.270       .  A
O349       Al357   1.936       .  S
C350        O360   1.275       .  A
C350        O351   1.262       .  A
C350        C688   1.488       .  S
O351       Al353   1.880       .  S
O352        C354   1.259       .  A
O352       Al353   1.914       .  S
Al353       O361   1.917       .  S
Al353       O363   1.897       .  S
Al353       O362   1.781       .  S
C354        O367   1.259       .  A
C354        C628   1.467       .  S
O355        C365   1.267       .  A
O355       Al357   1.946       .  S
O356        C369   1.270       .  A
O356       Al366   1.949       .  S
Al357       O370   1.860       .  S
Al357       O367   1.904       .  S
Al357       O362   1.782       .  S
O358        C365   1.250       .  A
O358       Al366   1.861       .  S
O359        C368   1.254       .  A
O359       Al366   1.901       .  S
O360       Al366   1.943       .  S
O361        C368   1.258       .  A
O362       Al366   1.781       .  S
O363        C364   1.268       .  A
C364        C652   1.491       .  S
C365       C1360   1.491       .  S
C368        C676   1.477       .  S
C369        O370   1.254       .  A
C369       C1336   1.482       .  S
O371        C386   1.270       .  A
O371       Al379   1.940       .  S
C372        O382   1.270       .  A
C372        O373   1.265   1_554  A
C372        C568   1.484       .  S
O373       Al375   1.893       .  S
O374        C376   1.259       .  A
O374       Al375   1.911       .  S
Al375       O383   1.908       .  S
Al375       O385   1.885       .  S
Al375       O384   1.779       .  S
C376        O389   1.259       .  A
C376        C604   1.474       .  S
O377        C387   1.267       .  A
O377       Al379   1.941       .  S
O378        C391   1.267       .  A
O378       Al388   1.947       .  S
Al379       O392   1.876       .  S
Al379       O389   1.911       .  S
Al379       O384   1.783       .  S
O380        C387   1.256       .  A
O380       Al388   1.877       .  S
O381        C390   1.259       .  A
O381       Al388   1.910       .  S
O382       Al388   1.933   1_554  S
O383        C390   1.258       .  A
O384       Al388   1.785       .  S
O385        C386   1.264       .  A
C386        C649   1.484       .  S
C387        C577   1.496       .  S
C390        C589   1.471       .  S
C391        O392   1.255       .  A
C391        C616   1.487       .  S
O393        C408   1.272       .  A
O393       Al401   1.928       .  S
C394        O404   1.273       .  A
C394        O395   1.264       .  A
C394        C553   1.483       .  S
O395       Al397   1.884       .  S
O396        C398   1.258       .  A
O396       Al397   1.919       .  S
Al397       O405   1.922       .  S
Al397       O407   1.888       .  S
Al397       O406   1.782       .  S
C398        O411   1.259       .  A
C398        C613   1.480       .  S
O399        C409   1.265   1_565  A
O399       Al401   1.937       .  S
O400        C413   1.266   1_565  A
O400       Al410   1.935       .  S
Al401       O414   1.873       .  S
Al401       O411   1.914       .  S
Al401       O406   1.783       .  S
O402        C409   1.253   1_565  A
O402       Al410   1.857       .  S
O403        C412   1.257       .  A
O403       Al410   1.914       .  S
O404       Al410   1.928       .  S
O405        C412   1.258       .  A
O406       Al410   1.780       .  S
O407        C408   1.268       .  A
C408        C541   1.478       .  S
C412        C637   1.480       .  S
C413        O414   1.256   1_545  A
O415        C430   1.273       .  A
O415       Al423   1.947       .  S
C416        O426   1.269       .  A
C416        O417   1.263   1_556  A
C416        C544   1.482       .  S
O417       Al419   1.869       .  S
O418        C420   1.261       .  A
O418       Al419   1.912       .  S
Al419       O427   1.909       .  S
Al419       O429   1.888       .  S
Al419       O428   1.765       .  S
C420        O433   1.257       .  A
C420        C505   1.467       .  S
O421        C431   1.272   1_455  A
O421       Al423   1.966       .  S
O422        C435   1.269       .  A
O422       Al432   1.959       .  S
Al423       O436   1.843       .  S
Al423       O433   1.895       .  S
Al423       O428   1.770       .  S
O424        C431   1.255   1_455  A
O424       Al432   1.866       .  S
O425        C434   1.263       .  A
O425       Al432   1.915       .  S
O426       Al432   1.937   1_556  S
O427        C434   1.260       .  A
O428       Al432   1.783       .  S
O429        C430   1.263       .  A
C430        C529   1.484       .  S
C431       C1288   1.499       .  S
C434        C580   1.471       .  S
C435        O436   1.249       .  A
C435       C1216   1.485   1_455  S
O437        C452   1.276       .  A
O437       Al445   1.939       .  S
C438        O448   1.274       .  A
C438        O439   1.267       .  A
C438        C556   1.488       .  S
O439       Al441   1.886       .  S
O440        C442   1.255       .  A
O440       Al441   1.902       .  S
Al441       O449   1.917       .  S
Al441       O451   1.894       .  S
Al441       O450   1.788       .  S
C442        O455   1.251       .  A
C442        C496   1.470       .  S
O443        C453   1.264       .  A
O443       Al445   1.937       .  S
O444        C457   1.264       .  A
O444       Al454   1.918       .  S
Al445       O458   1.857       .  S
Al445       O455   1.896       .  S
Al445       O450   1.792       .  S
O446        C453   1.250       .  A
O446       Al454   1.859       .  S
O447        C456   1.250       .  A
O447       Al454   1.900       .  S
O448       Al454   1.926       .  S
O449        C456   1.254       .  A
O450       Al454   1.786       .  S
O451        C452   1.269       .  A
C452        C532   1.491       .  S
C453        C673   1.486       .  S
C456        C661   1.478       .  S
C457        O458   1.251       .  A
C457        C484   1.479       .  S
O459        C474   1.265       .  A
O459       Al467   1.902       .  S
C460        O470   1.263       .  A
C460        O461   1.265       .  A
C460        C685   1.475       .  S
O461       Al463   1.912       .  S
O462        C464   1.252       .  A
O462       Al463   1.882       .  S
Al463       O471   1.895       .  S
Al463       O473   1.905       .  S
Al463       O472   1.772       .  S
C464        O477   1.256       .  A
C464        C517   1.491       .  S
O465        C475   1.266       .  A
O465       Al467   1.921       .  S
O466        C479   1.263       .  A
O466       Al476   1.914       .  S
Al467       O480   1.905       .  S
Al467       O477   1.911       .  S
Al467       O472   1.793       .  S
O468        C475   1.262       .  A
O468       Al476   1.902       .  S
O469        C478   1.251       .  A
O469       Al476   1.887       .  S
O470       Al476   1.891       .  S
O471        C478   1.256       .  A
O472       Al476   1.788       .  S
O473        C474   1.266       .  A
C474        C565   1.474       .  S
C478        C481   1.481       .  S
C479        O480   1.263       .  A
C481        C482   1.402       .  A
C481        C486   1.421       .  A
C482        C483   1.397       .  A
C482        H491   1.084       .  S
C483        C484   1.418       .  A
C483        S487   1.805       .  S
C484        C485   1.399       .  A
C485        C486   1.397       .  A
C485        H492   1.084       .  S
C486        S488   1.801       .  S
S487        H490   1.408       .  S
S488        H489   1.408       .  S
C493        C494   1.401       .  A
C493        C498   1.417       .  A
C494        C495   1.405       .  A
C494        H503   1.084       .  S
C495        C496   1.416       .  A
C495        S499   1.799       .  S
C496        C497   1.393       .  A
C497        C498   1.391       .  A
C497        H504   1.083       .  S
S499        H502   1.405       .  S
S500        H501   1.407       .  S
C505        C506   1.405       .  A
C505        C510   1.406       .  A
C506        C507   1.402       .  A
C506        H515   1.084       .  S
C507        C508   1.411       .  A
C507        S511   1.799       .  S
C508        C509   1.406       .  A
C509        C510   1.396       .  A
C510        S512   1.803       .  S
S511        H514   1.406       .  S
S512        H513   1.407       .  S
C517        C518   1.415       .  A
C517        C522   1.420       .  A
C518        C519   1.408       .  A
C518        H527   1.083       .  S
C519        C520   1.408       .  A
C519        S523   1.801       .  S
C520       C1131   1.478       .  S
C520        C521   1.402       .  A
C521        C522   1.392       .  A
C521        H528   1.083       .  S
C522        S524   1.813       .  S
S523       H1222   1.406       .  S
S524        H525   1.407       .  S
H526       S1219   1.407       .  S
C529        C530   1.405       .  A
C529        C534   1.416       .  A
C530        C531   1.402       .  A
C530        H539   1.083       .  S
C531        C532   1.418       .  A
C531        S535   1.803       .  S
C532        C533   1.406       .  A
C533        C534   1.398       .  A
C533        H540   1.082       .  S
C534        S536   1.803       .  S
S535        H538   1.408       .  S
S536        H537   1.407       .  S
C541        C542   1.406       .  A
C541        C546   1.414       .  A
C542        C543   1.398       .  A
C542        H551   1.083       .  S
C543        C544   1.416       .  A
C543        S547   1.801       .  S
C544        C545   1.405       .  A
C545        C546   1.389       .  A
C545        H552   1.082       .  S
C546        S548   1.801       .  S
S547        H550   1.408       .  S
S548        H549   1.399       .  S
C553        C554   1.405       .  A
C553        C558   1.416       .  A
C554        C555   1.396       .  A
C554        H563   1.084       .  S
C555        C556   1.416       .  A
C555        S559   1.800       .  S
C556        C557   1.405       .  A
C557        C558   1.395       .  A
C557        H564   1.083       .  S
C558        S560   1.802       .  S
S559        H562   1.408       .  S
S560        H561   1.408       .  S
C565        C566   1.402       .  A
C565        C570   1.412       .  A
C566        C567   1.401       .  A
C566        H575   1.083       .  S
C567        C568   1.415       .  A
C567        S571   1.807       .  S
C568        C569   1.407       .  A
C569        C570   1.399       .  A
C569        H576   1.083       .  S
C570        S572   1.802       .  S
S571        H574   1.407       .  S
S572        H573   1.406       .  S
C577        C578   1.414   1_556  A
C577        C582   1.417       .  A
C578        C579   1.406       .  A
C578        H587   1.080       .  S
C579        C580   1.403       .  A
C579        S583   1.806       .  S
C580        C581   1.402   1_554  A
C581        C582   1.401       .  A
C581        H588   1.084       .  S
C582        S584   1.800       .  S
S583        H586   1.407       .  S
S584        H585   1.407       .  S
C589        C590   1.403   1_556  A
C589        C594   1.404       .  A
C590        C591   1.404       .  A
C590        H599   1.084       .  S
C591        C592   1.416       .  A
C591       S1291   1.800       .  S
C592       C1127   1.492       .  S
C592        C593   1.413   1_554  A
C593        C594   1.402       .  A
C593        H600   1.082       .  S
C594        S596   1.807       .  S
S595       C1287   1.799       .  S
S595        H598   1.407       .  S
S596        H597   1.407       .  S
C601        C602   1.410       .  A
C601        C606   1.415       .  A
C602        C603   1.402       .  A
C602        H611   1.076       .  S
C603        C604   1.407       .  A
C603        S607   1.805       .  S
C604        C605   1.404       .  A
C605        C606   1.403       .  A
C605        H612   1.083       .  S
C606        S608   1.801       .  S
S607        H610   1.405       .  S
S608        H609   1.406       .  S
C613        C614   1.406       .  A
C613        C618   1.409       .  A
C614        C615   1.402       .  A
C614        H623   1.084       .  S
C615        C616   1.413       .  A
C615        S619   1.801       .  S
C616        C617   1.410       .  A
C617        C618   1.405       .  A
C617        H624   1.082       .  S
C618        S620   1.802       .  S
S619        H622   1.406       .  S
S620        H621   1.404       .  S
C625        C626   1.412       .  A
C625        C630   1.414       .  A
C626        C627   1.398       .  A
C626        H635   1.085       .  S
C627        C628   1.405       .  A
C627        S631   1.805       .  S
C628        C629   1.403       .  A
C629        C630   1.401       .  A
C629        H636   1.083       .  S
C630        S632   1.800       .  S
S631        H634   1.406       .  S
S632        H633   1.407       .  S
C637        C638   1.399       .  A
C637        C642   1.414       .  A
C638        C639   1.403       .  A
C638        H647   1.084       .  S
C639        C640   1.420       .  A
C639       S1339   1.805   1_455  S
C640       C1065   1.486       .  S
C640        C641   1.401       .  A
C641        C642   1.407       .  A
C641        H648   1.083       .  S
C642        S644   1.803       .  S
S643       C1335   1.805       .  S
S643        H646   1.408       .  S
S644        H645   1.407       .  S
C649        C650   1.403       .  A
C649        C654   1.414       .  A
C650        C651   1.395       .  A
C650        H659   1.084       .  S
C651        C652   1.420       .  A
C651        S655   1.802       .  S
C652        C653   1.409       .  A
C653        C654   1.401       .  A
C653        H660   1.084       .  S
C654        S656   1.802       .  S
S655        H658   1.407       .  S
S656        H657   1.404       .  S
C661        C662   1.397       .  A
C661        C666   1.413       .  A
C662        C663   1.402       .  A
C662        H671   1.084       .  S
C663        C664   1.421       .  A
C663       S1363   1.801   1_455  S
C664       C1061   1.488       .  S
C664        C665   1.401       .  A
C665        C666   1.404       .  A
C665        H672   1.083       .  S
C666        S668   1.800       .  S
S667       C1359   1.804       .  S
S667        H670   1.408       .  S
S668        H669   1.406       .  S
C673        C674   1.401       .  A
C673        C678   1.420       .  A
C674        C675   1.404       .  A
C674        H683   1.084       .  S
C675        C676   1.417       .  A
C675        S679   1.799       .  S
C676        C677   1.397       .  A
C677        C678   1.399       .  A
C677        H684   1.084       .  S
C678        S680   1.801       .  S
S679        H682   1.405       .  S
S680        H681   1.407       .  S
C685        C686   1.399       .  A
C685        C690   1.409       .  A
C686        C687   1.404       .  A
C686        H695   1.083       .  S
C687        C688   1.424       .  A
C687        S691   1.809       .  S
C688        C689   1.405       .  A
C689        C690   1.395       .  A
C689        H696   1.083       .  S
C690        S692   1.799       .  S
S691        H694   1.407       .  S
S692        H693   1.407       .  S
O697        C712   1.267       .  A
O697       Al705   1.931       .  S
C698        O708   1.270       .  A
C698        O699   1.262       .  A
C698       C1036   1.468       .  S
O699       Al701   1.884       .  S
O700        C702   1.263       .  A
O700       Al701   1.924       .  S
Al701       O709   1.917       .  S
Al701       O711   1.896       .  S
Al701       O710   1.780       .  S
C702        O715   1.260       .  A
C702        C976   1.469       .  S
O703        C713   1.267   1_655  A
O703       Al705   1.946       .  S
O704        C717   1.272   1_655  A
O704       Al714   1.958       .  S
Al705       O718   1.861       .  S
Al705       O715   1.900       .  S
Al705       O710   1.783       .  S
O706        C713   1.250   1_655  A
O706       Al714   1.860       .  S
O707        C716   1.256       .  A
O707       Al714   1.900       .  S
O708       Al714   1.937       .  S
O709        C716   1.259       .  A
O710       Al714   1.781       .  S
O711        C712   1.265       .  A
C712       C1000   1.491       .  S
C716       C1024   1.476       .  S
C717        O718   1.254   1_455  A
O719        C734   1.270       .  A
O719       Al727   1.935       .  S
C720        O730   1.271       .  A
C720        O721   1.267   1_554  A
C720        C916   1.486       .  S
O721       Al723   1.895       .  S
O722        C724   1.257       .  A
O722       Al723   1.908       .  S
Al723       O731   1.910       .  S
Al723       O733   1.892       .  S
Al723       O732   1.781       .  S
C724        O737   1.260       .  A
C724        C952   1.475       .  S
O725        C735   1.266       .  A
O725       Al727   1.939       .  S
O726        C739   1.268       .  A
O726       Al736   1.947       .  S
Al727       O740   1.878       .  S
Al727       O737   1.916       .  S
Al727       O732   1.786       .  S
O728        C735   1.256       .  A
O728       Al736   1.879       .  S
O729        C738   1.260       .  A
O729       Al736   1.918       .  S
O730       Al736   1.932   1_554  S
O731        C738   1.257       .  A
O732       Al736   1.785       .  S
O733        C734   1.267       .  A
C734        C997   1.485       .  S
C735        C925   1.496       .  S
C738        C937   1.479       .  S
C739        O740   1.256       .  A
C739        C964   1.488       .  S
O741        C756   1.272       .  A
O741       Al749   1.924       .  S
C742        O752   1.277       .  A
C742        O743   1.266       .  A
C742        C901   1.487       .  S
O743       Al745   1.886       .  S
O744        C746   1.254       .  A
O744       Al745   1.910       .  S
Al745       O753   1.919       .  S
Al745       O755   1.900       .  S
Al745       O754   1.785       .  S
C746        O759   1.258       .  A
C746        C961   1.482       .  S
O747        C757   1.263       .  A
O747       Al749   1.927       .  S
O748        C761   1.266       .  A
O748       Al758   1.936       .  S
Al749       O762   1.879       .  S
Al749       O759   1.921       .  S
Al749       O754   1.784       .  S
O750        C757   1.253       .  A
O750       Al758   1.861       .  S
O751        C760   1.256       .  A
O751       Al758   1.920       .  S
O752       Al758   1.937       .  S
O753        C760   1.255       .  A
O754       Al758   1.784       .  S
O755        C756   1.273       .  A
C756        C889   1.483       .  S
C757       C1321   1.486       .  S
C760        C985   1.484       .  S
C761        O762   1.256       .  A
C761       C1297   1.488       .  S
O763        C778   1.273       .  A
O763       Al771   1.944       .  S
C764        O774   1.269       .  A
C764        O765   1.264   1_556  A
C764        C892   1.485       .  S
O765       Al767   1.876       .  S
O766        C768   1.259       .  A
O766       Al767   1.909       .  S
Al767       O775   1.913       .  S
Al767       O777   1.887       .  S
Al767       O776   1.772       .  S
C768        O781   1.255       .  A
C768        C853   1.469       .  S
O769        C779   1.269       .  A
O769       Al771   1.952       .  S
O770        C783   1.268       .  A
O770       Al780   1.957       .  S
Al771       O784   1.853       .  S
Al771       O781   1.895       .  S
Al771       O776   1.776       .  S
O772        C779   1.256       .  A
O772       Al780   1.867       .  S
O773        C782   1.263       .  A
O773       Al780   1.918       .  S
O774       Al780   1.939   1_556  S
O775        C782   1.260       .  A
O776       Al780   1.784       .  S
O777        C778   1.264       .  A
C778        C877   1.481       .  S
C782        C928   1.475       .  S
C783        O784   1.252       .  A
O785        C800   1.275       .  A
O785       Al793   1.938       .  S
C786        O796   1.276       .  A
C786        O787   1.266       .  A
C786        C904   1.491       .  S
O787       Al789   1.888       .  S
O788        C790   1.257       .  A
O788       Al789   1.914       .  S
Al789       O797   1.925       .  S
Al789       O799   1.897       .  S
Al789       O798   1.789       .  S
C790        O803   1.250       .  A
C790        C844   1.469       .  S
O791        C801   1.263       .  A
O791       Al793   1.932       .  S
O792        C805   1.266       .  A
O792       Al802   1.928       .  S
Al793       O806   1.851       .  S
Al793       O803   1.892       .  S
Al793       O798   1.789       .  S
O794        C801   1.250       .  A
O794       Al802   1.858       .  S
O795        C804   1.250       .  A
O795       Al802   1.898       .  S
O796       Al802   1.933       .  S
O797        C804   1.256       .  A
O798       Al802   1.783       .  S
O799        C800   1.269       .  A
C800        C880   1.488       .  S
C801       C1021   1.483       .  S
C804       C1009   1.479       .  S
C805        O806   1.251       .  A
C805        C832   1.481       .  S
O807        C822   1.264       .  A
O807       Al815   1.908       .  S
C808        O818   1.264       .  A
C808        O809   1.264       .  A
C808       C1033   1.464       .  S
O809       Al811   1.906       .  S
O810        C812   1.257       .  A
O810       Al811   1.898       .  S
Al811       O819   1.906       .  S
Al811       O821   1.895       .  S
Al811       O820   1.783       .  S
C812        O825   1.254       .  A
C812        C865   1.485       .  S
O813        C823   1.265   1_545  A
O813       Al815   1.928       .  S
O814        C827   1.265   1_545  A
O814       Al824   1.920       .  S
Al815       O828   1.897   1_545  S
Al815       O825   1.889       .  S
Al815       O820   1.792       .  S
O816        C823   1.259   1_545  A
O816       Al824   1.898       .  S
O817        C826   1.248       .  A
O817       Al824   1.878       .  S
O818       Al824   1.897       .  S
O819        C826   1.257       .  A
O820       Al824   1.789       .  S
O821        C822   1.263       .  A
C822        C913   1.478       .  S
C823       C1189   1.479       .  S
C826        C829   1.484       .  S
C827        O828   1.261       .  A
C827       C1204   1.477       .  S
C829        C830   1.401       .  A
C829        C834   1.422       .  A
C830        C831   1.396       .  A
C830        H839   1.084       .  S
C831        C832   1.420       .  A
C831        S835   1.805       .  S
C832        C833   1.399       .  A
C833        C834   1.399       .  A
C833        H840   1.084       .  S
C834        S836   1.802       .  S
S835        H838   1.408       .  S
S836        H837   1.408       .  S
C841       C1171   1.474       .  S
C841        C842   1.400       .  A
C841        C846   1.415       .  A
C842        C843   1.402       .  A
C842        H851   1.084       .  S
C843        C844   1.415       .  A
C843        S847   1.798       .  S
C844        C845   1.394       .  A
C845        C846   1.393       .  A
C845        H852   1.081       .  S
C846       S1196   1.796       .  S
S847        H850   1.405       .  S
S848       C1194   1.794   1_545  S
S848        H849   1.398       .  S
C853        C854   1.406       .  A
C853        C858   1.406       .  A
C854        C855   1.402       .  A
C854        H863   1.084       .  S
C855        C856   1.410       .  A
C855        S859   1.799       .  S
C856       C1175   1.476       .  S
C856        C857   1.406       .  A
C857        C858   1.394       .  A
C857       H1212   1.084       .  S
C858        S860   1.803       .  S
S859        H862   1.407       .  S
S860        H861   1.407       .  S
H864       C1205   1.084       .  S
C865        C866   1.409       .  A
C865        C870   1.409       .  A
C866        C867   1.401       .  A
C866        H875   1.083       .  S
C867        C868   1.412       .  A
C867        S871   1.800       .  S
C868        C869   1.414       .  A
C869        C870   1.399       .  A
C869        H876   1.083       .  S
C870        S872   1.808       .  S
S872        H873   1.406       .  S
C877        C878   1.404       .  A
C877        C882   1.414       .  A
C878        C879   1.403       .  A
C878        H887   1.086       .  S
C879        C880   1.416       .  A
C879        S883   1.803       .  S
C880        C881   1.405       .  A
C881        C882   1.396       .  A
C881        H888   1.085       .  S
C882        S884   1.803       .  S
S883        H886   1.408       .  S
S884        H885   1.407       .  S
C889        C890   1.406       .  A
C889        C894   1.417       .  A
C890        C891   1.400       .  A
C890        H899   1.084       .  S
C891        C892   1.418       .  A
C891        S895   1.801       .  S
C892        C893   1.404       .  A
C893        C894   1.390       .  A
C893        H900   1.083       .  S
C894        S896   1.802       .  S
S895        H898   1.408       .  S
S896        H897   1.397       .  S
C901        C902   1.406       .  A
C901        C906   1.417       .  A
C902        C903   1.399       .  A
C902        H911   1.084       .  S
C903        C904   1.418       .  A
C903        S907   1.800       .  S
C904        C905   1.405       .  A
C905        C906   1.396       .  A
C905        H912   1.083       .  S
C906        S908   1.802       .  S
S907        H910   1.408       .  S
S908        H909   1.408       .  S
C913        C914   1.403       .  A
C913        C918   1.413       .  A
C914        C915   1.400       .  A
C914        H923   1.083       .  S
C915        C916   1.415       .  A
C915        S919   1.809       .  S
C916        C917   1.407       .  A
C917        C918   1.400       .  A
C917        H924   1.084       .  S
C918        S920   1.801       .  S
S919        H922   1.406       .  S
S920        H921   1.403       .  S
C925        C926   1.414   1_556  A
C925        C930   1.417       .  A
C926        C927   1.407       .  A
C926        H935   1.082       .  S
C927        C928   1.404       .  A
C927        S931   1.805       .  S
C928        C929   1.403   1_554  A
C929        C930   1.402       .  A
C929        H936   1.084       .  S
C930        S932   1.800       .  S
S931        H934   1.407       .  S
S932        H933   1.407       .  S
C937        C938   1.405   1_556  A
C937        C942   1.405       .  A
C938        C939   1.406       .  A
C938        H947   1.084       .  S
C939        C940   1.416       .  A
C940        C941   1.412   1_554  A
C941        C942   1.406       .  A
C941        H948   1.083       .  S
C942        S944   1.806       .  S
S943        H946   1.407       .  S
S944        H945   1.407       .  S
C949       C1109   1.489       .  S
C949        C950   1.408       .  A
C949        C954   1.415       .  A
C950        C951   1.401       .  A
C950        H959   1.083       .  S
C951        C952   1.407       .  A
C951        S955   1.805       .  S
C952        C953   1.406       .  A
C953        C954   1.405       .  A
C953        H960   1.086       .  S
C954        S956   1.802       .  S
S955        H958   1.405       .  S
S956        H957   1.407       .  S
C961        C962   1.406       .  A
C961        C966   1.410       .  A
C962        C963   1.403       .  A
C962        H971   1.085       .  S
C963        C964   1.414       .  A
C963        S967   1.801       .  S
C964        C965   1.410       .  A
C965        C966   1.407       .  A
C965        H972   1.083       .  S
C966        S968   1.802       .  S
S967        H970   1.406       .  S
S968        H969   1.404       .  S
C973       C1105   1.492       .  S
C973        C974   1.413       .  A
C973        C978   1.415       .  A
C974        C975   1.399       .  A
C974        H983   1.084       .  S
C975        C976   1.404       .  A
C975        S979   1.805       .  S
C976        C977   1.404       .  A
C977        C978   1.403       .  A
C977        H984   1.084       .  S
C978        S980   1.799       .  S
S979        H982   1.406       .  S
S980        H981   1.407       .  S
C985        C986   1.400       .  A
C985        C990   1.416       .  A
C986        C987   1.405       .  A
C986        H995   1.084       .  S
C987        C988   1.418       .  A
C988        C989   1.398       .  A
C989        C990   1.404       .  A
C989        H996   1.083       .  S
C990        S992   1.800       .  S
S991        H994   1.408       .  S
S992        H993   1.407       .  S
C997        C998   1.404       .  A
C997       C1002   1.416       .  A
C998        C999   1.396       .  A
C998       H1007   1.084       .  S
C999       C1000   1.419       .  A
C999       S1003   1.802       .  S
C1000      C1001   1.409       .  A
C1001      C1002   1.401       .  A
C1001      H1008   1.084       .  S
C1002      S1004   1.803       .  S
S1003      H1006   1.407       .  S
S1004      H1005   1.406       .  S
C1009      C1010   1.398       .  A
C1009      C1014   1.412       .  A
C1010      C1011   1.403       .  A
C1010      H1019   1.084       .  S
C1011      C1012   1.423       .  A
C1012      C1013   1.402       .  A
C1013      C1014   1.404       .  A
C1013      H1020   1.083       .  S
C1014      S1016   1.801       .  S
S1015      H1018   1.408       .  S
S1016      H1017   1.406       .  S
C1021      C1022   1.400       .  A
C1021      C1026   1.419       .  A
C1022      C1023   1.402       .  A
C1022      H1031   1.084       .  S
C1023      C1024   1.418       .  A
C1023      S1027   1.799       .  S
C1024      C1025   1.397       .  A
C1025      C1026   1.399       .  A
C1025      H1032   1.084       .  S
C1026      S1028   1.801       .  S
S1027      H1030   1.405       .  S
S1028      H1029   1.407       .  S
C1033      C1034   1.398       .  A
C1033      C1038   1.414       .  A
C1034      C1035   1.397       .  A
C1034      H1043   1.082       .  S
C1035      C1036   1.410       .  A
C1035      S1039   1.807       .  S
C1036      C1037   1.400       .  A
C1037      C1038   1.401       .  A
C1037      H1044   1.081       .  S
C1038      S1040   1.806       .  S
S1039      H1042   1.407       .  S
S1040      H1041   1.403       .  S
O1045      C1060   1.269       .  A
O1045     Al1053   1.933       .  S
C1046      O1056   1.274       .  A
C1046      O1047   1.262       .  A
C1046      C1384   1.477       .  S
O1047     Al1049   1.880       .  S
O1048      C1050   1.261       .  A
O1048     Al1049   1.919       .  S
Al1049     O1057   1.919       .  S
Al1049     O1059   1.894       .  S
Al1049     O1058   1.779       .  S
C1050      O1063   1.260       .  A
C1050      C1324   1.468       .  S
O1051      C1061   1.267   1_655  A
O1051     Al1053   1.944       .  S
O1052      C1065   1.272   1_655  A
O1052     Al1062   1.959       .  S
Al1053     O1066   1.862       .  S
Al1053     O1063   1.904       .  S
Al1053     O1058   1.782       .  S
O1054      C1061   1.250   1_655  A
O1054     Al1062   1.861       .  S
O1055      C1064   1.256       .  A
O1055     Al1062   1.903       .  S
O1056     Al1062   1.942       .  S
O1057      C1064   1.259       .  A
O1058     Al1062   1.780       .  S
O1059      C1060   1.267       .  A
C1060      C1348   1.489       .  S
C1064      C1372   1.478       .  S
C1065      O1066   1.254   1_455  A
O1067      C1082   1.268       .  A
O1067     Al1075   1.930       .  S
C1068      O1078   1.271       .  A
C1068      O1069   1.267   1_554  A
C1068      C1264   1.490       .  S
O1069     Al1071   1.900       .  S
O1070      C1072   1.259       .  A
O1070     Al1071   1.916       .  S
Al1071     O1079   1.913       .  S
Al1071     O1081   1.888       .  S
Al1071     O1080   1.779       .  S
C1072      O1085   1.258       .  A
C1072      C1300   1.474       .  S
O1073      C1083   1.264       .  A
O1073     Al1075   1.929       .  S
O1074      C1087   1.269       .  A
O1074     Al1084   1.952       .  S
Al1075     O1088   1.876       .  S
Al1075     O1085   1.907       .  S
Al1075     O1080   1.787       .  S
O1076      C1083   1.256       .  A
O1076     Al1084   1.873       .  S
O1077      C1086   1.260       .  A
O1077     Al1084   1.912       .  S
O1078     Al1084   1.937   1_554  S
O1079      C1086   1.259       .  A
O1080     Al1084   1.783       .  S
O1081      C1082   1.266       .  A
C1082      C1345   1.485       .  S
C1083      C1273   1.490       .  S
C1086      C1285   1.477       .  S
C1087      O1088   1.255       .  A
C1087      C1312   1.491       .  S
O1089      C1104   1.274       .  A
O1089     Al1097   1.935       .  S
C1090      O1100   1.275       .  A
C1090      O1091   1.266       .  A
C1090      C1249   1.485       .  S
O1091     Al1093   1.885       .  S
O1092      C1094   1.256       .  A
O1092     Al1093   1.914       .  S
Al1093     O1101   1.919       .  S
Al1093     O1103   1.890       .  S
Al1093     O1102   1.785       .  S
C1094      O1107   1.259       .  A
C1094      C1309   1.483       .  S
O1095      C1105   1.266   1_565  A
O1095     Al1097   1.940       .  S
O1096      C1109   1.266   1_565  A
O1096     Al1106   1.936       .  S
Al1097     O1110   1.877       .  S
Al1097     O1107   1.920       .  S
Al1097     O1102   1.783       .  S
O1098      C1105   1.252   1_565  A
O1098     Al1106   1.856       .  S
O1099      C1108   1.256       .  A
O1099     Al1106   1.912       .  S
O1100     Al1106   1.930       .  S
O1101      C1108   1.256       .  A
O1102     Al1106   1.783       .  S
O1103      C1104   1.270       .  A
C1104      C1237   1.485       .  S
C1108      C1333   1.478       .  S
C1109      O1110   1.256   1_545  A
O1111      C1126   1.270       .  A
O1111     Al1119   1.935       .  S
C1112      O1122   1.270       .  A
C1112      O1113   1.263   1_556  A
C1112      C1240   1.486       .  S
O1113     Al1115   1.876       .  S
O1114      C1116   1.262       .  A
O1114     Al1115   1.916       .  S
Al1115     O1123   1.915       .  S
Al1115     O1125   1.885       .  S
Al1115     O1124   1.766       .  S
C1116      O1129   1.257       .  A
C1116      C1201   1.469       .  S
O1117      C1127   1.270       .  A
O1117     Al1119   1.956       .  S
O1118      C1131   1.268       .  A
O1118     Al1128   1.961       .  S
Al1119     O1132   1.856       .  S
Al1119     O1129   1.894       .  S
Al1119     O1124   1.770       .  S
O1120      C1127   1.256       .  A
O1120     Al1128   1.864       .  S
O1121      C1130   1.262       .  A
O1121     Al1128   1.905       .  S
O1122     Al1128   1.943   1_556  S
O1123      C1130   1.263       .  A
O1124     Al1128   1.782       .  S
O1125      C1126   1.262       .  A
C1126      C1225   1.477       .  S
C1130      C1276   1.466       .  S
C1131      O1132   1.251       .  A
O1133      C1148   1.273       .  A
O1133     Al1141   1.929       .  S
C1134      O1144   1.274       .  A
C1134      O1135   1.267       .  A
C1134      C1252   1.488       .  S
O1135     Al1137   1.887       .  S
O1136      C1138   1.256       .  A
O1136     Al1137   1.904       .  S
Al1137     O1145   1.915       .  S
Al1137     O1147   1.894       .  S
Al1137     O1146   1.788       .  S
C1138      O1151   1.252       .  A
C1138      C1192   1.470       .  S
O1139      C1149   1.262       .  A
O1139     Al1141   1.930       .  S
O1140      C1153   1.263       .  A
O1140     Al1150   1.917       .  S
Al1141     O1154   1.851       .  S
Al1141     O1151   1.896       .  S
Al1141     O1146   1.794       .  S
O1142      C1149   1.251       .  A
O1142     Al1150   1.863       .  S
O1143      C1152   1.250       .  A
O1143     Al1150   1.900       .  S
O1144     Al1150   1.923       .  S
O1145      C1152   1.254       .  A
O1146     Al1150   1.787       .  S
O1147      C1148   1.269       .  A
C1148      C1228   1.484       .  S
C1149      C1369   1.484       .  S
C1152      C1357   1.479       .  S
C1153      O1154   1.251       .  A
C1153      C1180   1.477       .  S
O1155      C1170   1.266       .  A
O1155     Al1163   1.907       .  S
C1156      O1166   1.262       .  A
C1156      O1157   1.266       .  A
C1156      C1381   1.466       .  S
O1157     Al1159   1.914       .  S
O1158      C1160   1.253       .  A
O1158     Al1159   1.882       .  S
Al1159     O1167   1.893       .  S
Al1159     O1169   1.908       .  S
Al1159     O1168   1.774       .  S
C1160      O1173   1.254       .  A
C1160      C1213   1.487       .  S
O1161      C1171   1.265       .  A
O1161     Al1163   1.923       .  S
O1162      C1175   1.262       .  A
O1162     Al1172   1.911       .  S
Al1163     O1176   1.901       .  S
Al1163     O1173   1.893       .  S
Al1163     O1168   1.791       .  S
O1164      C1171   1.262       .  A
O1164     Al1172   1.900       .  S
O1165      C1174   1.248       .  A
O1165     Al1172   1.877       .  S
O1166     Al1172   1.885       .  S
O1167      C1174   1.255       .  A
O1168     Al1172   1.790       .  S
O1169      C1170   1.266       .  A
C1170      C1261   1.482       .  S
C1174      C1177   1.477       .  S
C1175      O1176   1.262       .  A
C1177      C1178   1.400       .  A
C1177      C1182   1.420       .  A
C1178      C1179   1.393       .  A
C1178      H1187   1.084       .  S
C1179      C1180   1.418       .  A
C1179      S1183   1.805       .  S
C1180      C1181   1.399       .  A
C1181      C1182   1.397       .  A
C1181      H1188   1.084       .  S
C1182      S1184   1.801       .  S
S1183      H1186   1.407       .  S
S1184      H1185   1.408       .  S
C1189      C1190   1.402       .  A
C1189      C1194   1.416       .  A
C1190      C1191   1.405       .  A
C1190      H1199   1.084       .  S
C1191      C1192   1.416       .  A
C1191      S1195   1.799       .  S
C1192      C1193   1.393       .  A
C1193      C1194   1.390       .  A
C1193      H1200   1.082       .  S
S1195      H1198   1.405       .  S
S1196      H1197   1.404       .  S
C1201      C1202   1.406       .  A
C1201      C1206   1.406       .  A
C1202      C1203   1.403       .  A
C1202      H1211   1.084       .  S
C1203      C1204   1.410       .  A
C1203      S1207   1.799       .  S
C1204      C1205   1.407       .  A
C1205      C1206   1.396       .  A
C1206      S1208   1.804       .  S
S1207      H1210   1.406       .  S
S1208      H1209   1.407       .  S
C1213      C1214   1.414       .  A
C1213      C1218   1.415       .  A
C1214      C1215   1.404       .  A
C1214      H1223   1.083       .  S
C1215      C1216   1.408       .  A
C1215      S1219   1.800       .  S
C1216      C1217   1.409       .  A
C1217      C1218   1.391       .  A
C1217      H1224   1.082       .  S
C1218      S1220   1.811       .  S
S1220      H1221   1.407       .  S
C1225      C1226   1.404       .  A
C1225      C1230   1.414       .  A
C1226      C1227   1.400       .  A
C1226      H1235   1.084       .  S
C1227      C1228   1.415       .  A
C1227      S1231   1.803       .  S
C1228      C1229   1.405       .  A
C1229      C1230   1.395       .  A
C1229      H1236   1.082       .  S
C1230      S1232   1.803       .  S
S1231      H1234   1.408       .  S
S1232      H1233   1.407       .  S
C1237      C1238   1.408       .  A
C1237      C1242   1.416       .  A
C1238      C1239   1.399       .  A
C1238      H1247   1.083       .  S
C1239      C1240   1.416       .  A
C1239      S1243   1.802       .  S
C1240      C1241   1.406       .  A
C1241      C1242   1.392       .  A
C1241      H1248   1.083       .  S
C1242      S1244   1.802       .  S
S1243      H1246   1.408       .  S
S1244      H1245   1.400       .  S
C1249      C1250   1.406       .  A
C1249      C1254   1.416       .  A
C1250      C1251   1.396       .  A
C1250      H1259   1.084       .  S
C1251      C1252   1.416       .  A
C1251      S1255   1.800       .  S
C1252      C1253   1.406       .  A
C1253      C1254   1.395       .  A
C1253      H1260   1.083       .  S
C1254      S1256   1.802       .  S
S1255      H1258   1.408       .  S
S1256      H1257   1.407       .  S
C1261      C1262   1.404       .  A
C1261      C1266   1.413       .  A
C1262      C1263   1.403       .  A
C1262      H1271   1.083       .  S
C1263      C1264   1.416       .  A
C1263      S1267   1.808       .  S
C1264      C1265   1.407       .  A
C1265      C1266   1.401       .  A
C1265      H1272   1.083       .  S
C1266      S1268   1.802       .  S
S1267      H1270   1.407       .  S
S1268      H1269   1.406       .  S
C1273      C1274   1.412   1_556  A
C1273      C1278   1.417       .  A
C1274      C1275   1.403       .  A
C1274      H1283   1.081       .  S
C1275      C1276   1.402       .  A
C1275      S1279   1.806       .  S
C1276      C1277   1.401   1_554  A
C1277      C1278   1.400       .  A
C1277      H1284   1.084       .  S
C1278      S1280   1.800       .  S
S1279      H1282   1.407       .  S
S1280      H1281   1.408       .  S
C1285      C1286   1.404   1_556  A
C1285      C1290   1.404       .  A
C1286      C1287   1.407       .  A
C1286      H1295   1.084       .  S
C1287      C1288   1.417       .  A
C1288      C1289   1.414   1_554  A
C1289      C1290   1.404       .  A
C1289      H1296   1.082       .  S
C1290      S1292   1.807       .  S
S1291      H1294   1.407       .  S
S1292      H1293   1.407       .  S
C1297      C1298   1.409       .  A
C1297      C1302   1.414       .  A
C1298      C1299   1.403       .  A
C1298      H1307   1.076       .  S
C1299      C1300   1.407       .  A
C1299      S1303   1.804       .  S
C1300      C1301   1.404       .  A
C1301      C1302   1.402       .  A
C1301      H1308   1.084       .  S
C1302      S1304   1.801       .  S
S1303      H1306   1.405       .  S
S1304      H1305   1.406       .  S
C1309      C1310   1.406       .  A
C1309      C1314   1.410       .  A
C1310      C1311   1.403       .  A
C1310      H1319   1.085       .  S
C1311      C1312   1.413       .  A
C1311      S1315   1.801       .  S
C1312      C1313   1.411       .  A
C1313      C1314   1.407       .  A
C1313      H1320   1.083       .  S
C1314      S1316   1.802       .  S
S1315      H1318   1.406       .  S
S1316      H1317   1.404       .  S
C1321      C1322   1.411       .  A
C1321      C1326   1.415       .  A
C1322      C1323   1.399       .  A
C1322      H1331   1.085       .  S
C1323      C1324   1.405       .  A
C1323      S1327   1.804       .  S
C1324      C1325   1.404       .  A
C1325      C1326   1.402       .  A
C1325      H1332   1.085       .  S
C1326      S1328   1.800       .  S
S1327      H1330   1.406       .  S
S1328      H1329   1.407       .  S
C1333      C1334   1.399       .  A
C1333      C1338   1.414       .  A
C1334      C1335   1.403       .  A
C1334      H1343   1.084       .  S
C1335      C1336   1.419       .  A
C1336      C1337   1.400       .  A
C1337      C1338   1.404       .  A
C1337      H1344   1.083       .  S
C1338      S1340   1.803       .  S
S1339      H1342   1.407       .  S
S1340      H1341   1.407       .  S
C1345      C1346   1.404       .  A
C1345      C1350   1.416       .  A
C1346      C1347   1.395       .  A
C1346      H1355   1.084       .  S
C1347      C1348   1.419       .  A
C1347      S1351   1.803       .  S
C1348      C1349   1.408       .  A
C1349      C1350   1.399       .  A
C1349      H1356   1.084       .  S
C1350      S1352   1.803       .  S
S1351      H1354   1.405       .  S
S1352      H1353   1.404       .  S
C1357      C1358   1.397       .  A
C1357      C1362   1.413       .  A
C1358      C1359   1.402       .  A
C1358      H1367   1.084       .  S
C1359      C1360   1.422       .  A
C1360      C1361   1.404       .  A
C1361      C1362   1.407       .  A
C1361      H1368   1.083       .  S
C1362      S1364   1.804       .  S
S1363      H1366   1.408       .  S
S1364      H1365   1.406       .  S
C1369      C1370   1.401       .  A
C1369      C1374   1.418       .  A
C1370      C1371   1.404       .  A
C1370      H1379   1.084       .  S
C1371      C1372   1.418       .  A
C1371      S1375   1.799       .  S
C1372      C1373   1.397       .  A
C1373      C1374   1.399       .  A
C1373      H1380   1.084       .  S
C1374      S1376   1.801       .  S
S1375      H1378   1.405       .  S
S1376      H1377   1.408       .  S
C1381      C1382   1.398       .  A
C1381      C1386   1.410       .  A
C1382      C1383   1.401       .  A
C1382      H1391   1.081       .  S
C1383      C1384   1.418       .  A
C1383      S1387   1.810       .  S
C1384      C1385   1.402       .  A
C1385      C1386   1.397       .  A
C1385      H1392   1.080       .  S
C1386      S1388   1.803       .  S
S1387      H1390   1.407       .  S
S1388      H1389   1.404       .  S
