geometry optimzed in LAMMPS
_audit_creation_date              2020-11-30 
_audit_creation_method            'lammps2cif' 
_symmetry_space_group_name_H-M    'P1' 
_symmetry_Int_Tables_number       1 
_symmetry_cell_setting            triclinic 
loop_ 
_symmetry_equiv_pos_as_xyz 
  x,y,z 
_cell_length_a                    47.82017931 
_cell_length_b                    47.04921174989217 
_cell_length_c                    44.79534073749768 
_cell_angle_alpha                 90.00407334483455 
_cell_angle_beta                  90.64536354553064 
_cell_angle_gamma                 89.56512045268819 
loop_ 
_atom_site_label 
_atom_site_type_symbol 
_atom_site_fract_x 
_atom_site_fract_y 
_atom_site_fract_z 
_atom_site_charge 
N1          N  0.96125607  0.99565146  0.22875019    -0.35900
N2          N  0.00344904  0.03979318  0.23941862    -0.56500
N3          N  0.04622875  0.99690082  0.23784677    -0.35900
N4          N  0.00409731  0.95266161  0.23078936    -0.56500
C5          C  0.94526128  0.01814626  0.23669242     0.27700
C6          C  0.94568216  0.97198202  0.23240221     0.27700
C7          C  0.06068313  0.01920152  0.24892858     0.27700
C8          C  0.06089906  0.97318561  0.24498147     0.27700
C9          C  0.98094608  0.05614467  0.23267236     0.36300
C10         C  0.02603799  0.05683489  0.23756202     0.36300
C11         C  0.98256770  0.93701807  0.22027001     0.36300
C12         C  0.02760675  0.93777480  0.22489489     0.36300
C13         C  0.91913578  0.00878776  0.24527482    -0.21200
C14         C  0.91954782  0.97963608  0.24304708    -0.21200
C15         C  0.08462767  0.00956113  0.26353073    -0.21200
C16         C  0.08472412  0.98043587  0.26112276    -0.21200
C17         C  0.98922086  0.08382193  0.22708020    -0.22300
C18         C  0.01781202  0.08416218  0.22979452    -0.22300
C19         C  0.99249292  0.91225879  0.20721590    -0.22300
C20         C  0.02108957  0.91268316  0.21026754    -0.22300
C21         C  0.95296121  0.04690933  0.23384408    -0.17600
C22         C  0.95416384  0.94400051  0.22472292    -0.17600
C23         C  0.05450666  0.94557874  0.23492012    -0.17600
C24         C  0.05371513  0.04803569  0.24423251    -0.17600
H25         H  0.90153090  0.02156145  0.25239355     0.15300
H26         H  0.90239089  0.96580526  0.24853172     0.15300
H27         H  0.10049028  0.02222470  0.27452934     0.15300
H28         H  0.10075210  0.96624690  0.26984200     0.15300
H29         H  0.97611141  0.10201754  0.22183126     0.13600
H30         H  0.03087875  0.10251392  0.22645147     0.13600
H31         H  0.98044817  0.89556283  0.19672496     0.13600
H32         H  0.03539905  0.89629549  0.20281361     0.13600
H33         H  0.98044247  0.99684066  0.21810729     0.26800
H34         H  0.02940588  0.99797842  0.22292643     0.26800
O35         O  0.21644305  0.28850708  0.25140115    -0.80200
O36         O  0.25822112  0.19145305  0.16666795    -0.64900
O37         O  0.24283312  0.23828799  0.23366814    -1.11500
C38         C  0.30932309  0.29852177  0.18682740     1.06700
O39         O  0.30353304  0.19852511  0.17303546    -0.78100
O40         O  0.32886567  0.23867307  0.20713329    -0.65700
Ni41       Ni  0.20573136  0.25015702  0.24181415     1.34900
C42         C  0.32153733  0.23999974  0.23423689     0.85400
O43         O  0.22572897  0.18501470  0.21485489    -0.78600
O44         O  0.19173030  0.21235891  0.23447227    -0.88900
C45         C  0.28343199  0.18502687  0.16105607     0.85000
O46         O  0.19711580  0.26242688  0.20219383    -0.67100
O47         O  0.31273007  0.27918993  0.16725665    -0.86400
C48         C  0.20072263  0.24866112  0.17826085     0.85800
C49         C  0.20164443  0.18823350  0.22646675     1.07400
H50         H  0.26063642  0.25600723  0.17100945     0.39200
O51         O  0.27101735  0.24581148  0.18649989    -1.09100
O52         O  0.29718988  0.24720089  0.24234605    -0.65700
Ni53       Ni  0.26787498  0.26736171  0.22192075     1.26300
O54         O  0.21797570  0.22813588  0.17609883    -0.65900
O55         O  0.29376290  0.29594669  0.20962088    -0.78200
C56         C  0.23831881  0.29658236  0.26528875     0.85200
O57         O  0.26239148  0.28777693  0.25799442    -0.65400
Ni58       Ni  0.30720417  0.23909606  0.17073831     1.27400
Ni59       Ni  0.24898936  0.21464046  0.20000015     1.26100
H60         H  0.24995550  0.22871058  0.25114938     0.39800
O61         O  0.70906889  0.21213125  0.23980821    -0.80200
O62         O  0.81130868  0.24900847  0.16599871    -0.64900
O63         O  0.76118466  0.23782141  0.23056248    -1.11500
C64         C  0.71238037  0.31463834  0.18485079     1.06700
O65         O  0.81209514  0.29533718  0.17417002    -0.78100
O66         O  0.77886642  0.32076706  0.21483099    -0.65700
Ni67       Ni  0.74797347  0.20091488  0.24063334     1.34900
C68         C  0.76840543  0.31400728  0.23977136     0.85400
O69         O  0.81181966  0.21358721  0.21268975    -0.78600
O70         O  0.78573098  0.18685591  0.24337821    -0.88900
C71         C  0.82188696  0.27327764  0.16151810     0.85000
O72         O  0.74380290  0.18573836  0.20108075    -0.67100
O73         O  0.73568388  0.32167007  0.17352189    -0.86400
C74         C  0.75351226  0.19292224  0.17590477     0.85800
C75         C  0.80865547  0.19284199  0.23062414     1.07400
H76         H  0.75076314  0.26297404  0.16687398     0.39200
O77         O  0.76003603  0.26995939  0.18474268    -1.09100
O78         O  0.75143276  0.29349978  0.24282291    -0.65700
Ni79       Ni  0.73462896  0.26543014  0.21686773     1.26300
O80         O  0.76907567  0.21442802  0.17237832    -0.65900
O81         O  0.70906654  0.29315633  0.20172681    -0.78200
C82         C  0.69886371  0.23376108  0.25289070     0.85200
O83         O  0.70929157  0.25820974  0.24891528    -0.65400
Ni84       Ni  0.77332201  0.30695305  0.17496705     1.27400
Ni85       Ni  0.78639950  0.24205342  0.19822424     1.26100
H86         H  0.77047294  0.24500877  0.24826928     0.39800
O87         O  0.80003594  0.69894340  0.17800730    -0.80200
O88         O  0.70508702  0.74625682  0.25507234    -0.64900
O89         O  0.74925141  0.72784734  0.18806045    -1.11500
C90         C  0.80044793  0.80876232  0.21402536     1.06700
O91         O  0.70421639  0.79283551  0.24704567    -0.78100
O92         O  0.72753791  0.80687569  0.19401604    -0.65700
Ni93       Ni  0.76104050  0.68936445  0.18150268     1.34900
C94         C  0.73995722  0.80052183  0.17000081     0.85400
O95         O  0.69970408  0.70799473  0.21212385    -0.78600
O96         O  0.72291887  0.67675316  0.18329098    -0.88900
C97         C  0.69493443  0.77069912  0.25973129     0.85000
O98         O  0.76766488  0.67742322  0.22202767    -0.67100
O99         O  0.77682375  0.81827256  0.22247109    -0.86400
C100        C  0.75935185  0.68724624  0.24683449     0.85800
C101        C  0.70089418  0.68545355  0.19643332     1.07400
H102        H  0.76454757  0.75961398  0.24804987     0.39200
O103        O  0.75436946  0.76446015  0.23005695    -1.09100
O104        O  0.75961274  0.78207256  0.16889019    -0.65700
Ni105      Ni  0.77720608  0.75538287  0.19656827     1.26300
O106        O  0.74519118  0.71012219  0.24894066    -0.65900
O107        O  0.80480028  0.78305924  0.20650345    -0.78200
C108        C  0.80943196  0.71884714  0.16185655     0.85200
O109        O  0.79939607  0.74380618  0.16353677    -0.65400
Ni110      Ni  0.74124008  0.80296811  0.23388652     1.27400
Ni111      Ni  0.72688499  0.73618505  0.22171416     1.26100
H112        H  0.73888917  0.73363491  0.17052624     0.39800
O113        O  0.28814237  0.79327792  0.17997785    -0.80200
O114        O  0.26040970  0.69607927  0.26213670    -0.64900
O115        O  0.26523752  0.74120198  0.19276849    -1.11500
C116        C  0.18833518  0.78908959  0.23548439     1.06700
O117        O  0.21527341  0.69005086  0.25306419    -0.78100
O118        O  0.18741302  0.71886240  0.21078538    -0.65700
Ni119      Ni  0.30025647  0.75440977  0.17921403     1.34900
C120        C  0.19172795  0.72971257  0.18541123     0.85400
O121        O  0.29318806  0.69351599  0.21507833    -0.78600
O122        O  0.31434565  0.71616130  0.17732138    -0.88900
C123        C  0.23842081  0.68162478  0.26430040     0.85000
O124        O  0.31857877  0.76021041  0.21687885    -0.67100
O125        O  0.18297821  0.76520587  0.24767653    -0.86400
C126        C  0.31245953  0.75443257  0.24368675     0.85800
C127        C  0.31104697  0.69468750  0.19425719     1.07400
H128        H  0.24175869  0.75514500  0.25632749     0.39200
O129        O  0.23545467  0.74426942  0.23929126    -1.09100
O130        O  0.20980181  0.74889631  0.18101693    -0.65700
Ni131      Ni  0.23756474  0.76803953  0.20516562     1.26300
O132        O  0.29093921  0.74033865  0.25066277    -0.65900
O133        O  0.20955585  0.79361380  0.21917669    -0.78200
C134        C  0.26648798  0.80237331  0.16630031     0.85200
O135        O  0.24270554  0.79184000  0.17131154    -0.65400
Ni136      Ni  0.20056067  0.72826316  0.24976643     1.27400
Ni137      Ni  0.26424766  0.71868870  0.22769421     1.26100
H138        H  0.25755109  0.72988496  0.17668067     0.39800
N139        N  0.30856513  0.94501735  0.96039254    -0.35900
N140        N  0.30873564  0.98481548  0.91114920    -0.56500
N141        N  0.31342904  0.03181660  0.95273682    -0.35900
N142        N  0.31187332  0.99206829  0.00179612    -0.56500
C143        C  0.29961421  0.92802953  0.93796927     0.27700
C144        C  0.30271833  0.93165383  0.98623522     0.27700
C145        C  0.30816705  0.04579089  0.92695209     0.27700
C146        C  0.30649887  0.04958768  0.97525301     0.27700
C147        C  0.30913729  0.96034640  0.89550447     0.36300
C148        C  0.31427876  0.00566302  0.89151425     0.36300
C149        C  0.31507277  0.97059653  0.02146528     0.36300
C150        C  0.31521662  0.01630230  0.01742179     0.36300
C151        C  0.28868828  0.90324835  0.94965100    -0.21200
C152        C  0.29082253  0.90543275  0.98010398    -0.21200
C153        C  0.29852560  0.07303573  0.93308369    -0.21200
C154        C  0.29734253  0.07538623  0.96361510    -0.21200
C155        C  0.31486729  0.96560788  0.86577221    -0.22300
C156        C  0.31830744  0.99441165  0.86326135    -0.22300
C157        C  0.32083043  0.98122053  0.04973327    -0.22300
C158        C  0.32080015  0.01022382  0.04719177    -0.22300
C159        C  0.30200709  0.93371681  0.90722681    -0.17600
C160        C  0.30857426  0.94210730  0.01515632    -0.17600
C161        C  0.30940813  0.04357436  0.00597777    -0.17600
C162        C  0.31248649  0.03482868  0.89806223    -0.17600
H163        H  0.28016670  0.88533858  0.93751833     0.15300
H164        H  0.28427714  0.88941482  0.99581196     0.15300
H165        H  0.29270754  0.08945335  0.91721676     0.15300
H166        H  0.29069377  0.09405922  0.97581790     0.15300
H167        H  0.31593746  0.95035020  0.84772526     0.13600
H168        H  0.32234363  0.00585557  0.84281506     0.13600
H169        H  0.32331469  0.96944614  0.07034919     0.13600
H170        H  0.32343190  0.02506561  0.06543831     0.13600
H171        H  0.32035812  0.96332468  0.95822063     0.26800
H172        H  0.32369877  0.01235555  0.95467321     0.26800
N173        N  0.97730364  0.28453522  0.95975021    -0.35900
N174        N  0.02071313  0.27508440  0.00402720    -0.56500
N175        N  0.06288353  0.27552645  0.95731256    -0.35900
N176        N  0.01942510  0.28267620  0.91270892    -0.56500
C177        C  0.96153252  0.27786512  0.98364704     0.27700
C178        C  0.96078219  0.28211220  0.93522339     0.27700
C179        C  0.07811717  0.26541542  0.98067233     0.27700
C180        C  0.07752000  0.27001731  0.93222739     0.27700
C181        C  0.99892712  0.27921046  0.02254032     0.36300
C182        C  0.04399386  0.27499231  0.02133979     0.36300
C183        C  0.99676225  0.29027890  0.89621725     0.36300
C184        C  0.04186561  0.28593215  0.89495407     0.36300
C185        C  0.93451599  0.27180345  0.97423818    -0.21200
C186        C  0.93403498  0.27446359  0.94369157    -0.21200
C187        C  0.10287364  0.25363646  0.97027492    -0.21200
C188        C  0.10235423  0.25629014  0.93974732    -0.21200
C189        C  0.00832120  0.28156779  0.05176234    -0.22300
C190        C  0.03684653  0.27884899  0.05104862    -0.22300
C191        C  0.00478161  0.29830472  0.86782193    -0.22300
C192        C  0.03337778  0.29573605  0.86707726    -0.22300
C193        C  0.97056808  0.27812247  0.01378900    -0.17600
C194        C  0.96879791  0.28771836  0.90552668    -0.17600
C195        C  0.06958172  0.27804915  0.90288052    -0.17600
C196        C  0.07117187  0.26846850  0.01114573    -0.17600
H197        H  0.91692396  0.26608909  0.98793042     0.15300
H198        H  0.91597011  0.27116743  0.92936897     0.15300
H199        H  0.11985409  0.24434852  0.98315862     0.15300
H200        H  0.11858465  0.24906617  0.92485007     0.15300
H201        H  0.99588050  0.28421052  0.07162110     0.13600
H202        H  0.05051278  0.27878214  0.07044377     0.13600
H203        H  0.99138077  0.30494934  0.84943745     0.13600
H204        H  0.04633912  0.30014176  0.84800615     0.13600
H205        H  0.99731524  0.29293614  0.96028099     0.26800
H206        H  0.04519058  0.28836819  0.95878305     0.26800
N207        N  0.73090324  0.04214989  0.96508446    -0.35900
N208        N  0.72466351  0.99790444  0.00984612    -0.56500
N209        N  0.72121556  0.95552056  0.96282155    -0.35900
N210        N  0.72378771  0.99987535  0.91784532    -0.56500
C211        C  0.72403621  0.05720149  0.98979730     0.27700
C212        C  0.72391415  0.05827224  0.94103324     0.27700
C213        C  0.71289087  0.94045546  0.98682987     0.27700
C214        C  0.71262610  0.94134141  0.93812275     0.27700
C215        C  0.73396944  0.01967533  0.02688392     0.36300
C216        C  0.72946500  0.97386542  0.02569299     0.36300
C217        C  0.73280738  0.02242527  0.90189692     0.36300
C218        C  0.72799118  0.97650565  0.90074439     0.36300
C219        C  0.71209576  0.08294111  0.98133318    -0.21200
C220        C  0.71201547  0.08361148  0.95056719    -0.21200
C221        C  0.69835677  0.91665755  0.97729211    -0.21200
C222        C  0.69827284  0.91717348  0.94649463    -0.21200
C223        C  0.74528122  0.00937840  0.05341393    -0.22300
C224        C  0.74236868  0.98033252  0.05268778    -0.22300
C225        C  0.74315179  0.01324841  0.87472839    -0.22300
C226        C  0.73999580  0.98420873  0.87395861    -0.22300
C227        C  0.72978425  0.04865245  0.01960913    -0.17600
C228        C  0.72968931  0.05118542  0.91094430    -0.17600
C229        C  0.71961901  0.94863912  0.90849417    -0.17600
C230        C  0.72034717  0.94658349  0.01680953    -0.17600
H231        H  0.70418689  0.09951289  0.99578022     0.15300
H232        H  0.70398936  0.10078265  0.93679527     0.15300
H233        H  0.68925024  0.90032956  0.99106010     0.15300
H234        H  0.68910329  0.90133882  0.93193089     0.15300
H235        H  0.75453492  0.02148657  0.07147391     0.13600
H236        H  0.74891556  0.96569865  0.07008742     0.13600
H237        H  0.75202067  0.02605665  0.85721367     0.13600
H238        H  0.74593238  0.97037528  0.85576487     0.13600
H239        H  0.74249233  0.02329625  0.96468240     0.26800
H240        H  0.73507656  0.97248142  0.96323707     0.26800
N241        N  0.05380295  0.68626001  0.96792109    -0.35900
N242        N  0.01046677  0.68919652  0.01265635    -0.56500
N243        N  0.96922685  0.69176192  0.96426830    -0.35900
N244        N  0.01259329  0.68523741  0.91980814    -0.56500
C245        C  0.06892865  0.68221751  0.99324593     0.27700
C246        C  0.06984055  0.67766317  0.94491785     0.27700
C247        C  0.95245100  0.68786614  0.98800311     0.27700
C248        C  0.95354225  0.68747844  0.93938688     0.27700
C249        C  0.03281380  0.69611498  0.02985147     0.36300
C250        C  0.98755221  0.69667955  0.02829103     0.36300
C251        C  0.03608189  0.68810797  0.90359205     0.36300
C252        C  0.99095676  0.69292735  0.90177977     0.36300
C253        C  0.09476128  0.67054889  0.98641826    -0.21200
C254        C  0.09522852  0.66735489  0.95590065    -0.21200
C255        C  0.92580450  0.68086457  0.97810067    -0.21200
C256        C  0.92643233  0.68081874  0.94742377    -0.21200
C257        C  0.02406032  0.70747116  0.05675129    -0.22300
C258        C  0.99533693  0.70767039  0.05583065    -0.22300
C259        C  0.02918419  0.69727645  0.87495654    -0.22300
C260        C  0.00060694  0.70004299  0.87375312    -0.22300
C261        C  0.06095918  0.69143109  0.02188034    -0.17600
C262        C  0.06354280  0.68232331  0.91436936    -0.17600
C263        C  0.96251482  0.69196756  0.90981130    -0.17600
C264        C  0.95970647  0.69362952  0.01805170    -0.17600
H265        H  0.11170267  0.66545800  0.00178199     0.15300
H266        H  0.11269775  0.65934805  0.94315835     0.15300
H267        H  0.90755450  0.67709885  0.99157762     0.15300
H268        H  0.90869966  0.67700491  0.93280961     0.15300
H269        H  0.03698933  0.71496538  0.07506118     0.13600
H270        H  0.98175546  0.71550815  0.07320733     0.13600
H271        H  0.04311822  0.70199287  0.85680923     0.13600
H272        H  0.98838913  0.70674370  0.85449080     0.13600
H273        H  0.03559697  0.69833918  0.96620839     0.26800
H274        H  0.98896772  0.70076028  0.96487784     0.26800
O275        O  0.29018304  0.76530693  0.75728198    -0.80200
O276        O  0.24721356  0.71072559  0.64115806    -0.64900
O277        O  0.26350878  0.76408848  0.70181749    -1.11500
C278        C  0.18834119  0.71787138  0.74992553     1.06700
O279        O  0.20276356  0.72292378  0.64324255    -0.78100
O280        O  0.17960725  0.75497232  0.68472928    -0.65700
Ni281      Ni  0.30073159  0.76907200  0.71616353     1.34900
C282        C  0.18824135  0.77743192  0.69720625     0.85400
O283        O  0.28295982  0.75312202  0.64471315    -0.78600
O284        O  0.31358059  0.77428492  0.67601065    -0.88900
C285        C  0.22270043  0.71015092  0.63047204     0.85000
O286        O  0.31278757  0.73015492  0.71653839    -0.67100
O287        O  0.18077756  0.70977438  0.72390324    -0.86400
C288        C  0.30525709  0.70854358  0.70161790     0.85800
C289        C  0.30486973  0.76747284  0.64992148     1.07400
H290        H  0.23686272  0.70424734  0.70595398     0.39200
O291        O  0.23018216  0.72235630  0.69849851    -1.09100
O292        O  0.20968108  0.77796455  0.71426366    -0.65700
Ni293      Ni  0.23638097  0.74988409  0.72884139     1.26300
O294        O  0.28430324  0.70892249  0.68382008    -0.65900
O295        O  0.20903789  0.73423208  0.75509703    -0.78200
C296        C  0.27011966  0.77911962  0.76883267     0.85200
O297        O  0.24551688  0.77728366  0.75831233    -0.65400
Ni298      Ni  0.19300652  0.71672694  0.68404999     1.27400
Ni299      Ni  0.25671107  0.73709869  0.67120598     1.26100
H300        H  0.25729960  0.78244147  0.69439793     0.39800
N301        N  0.96767838  0.99675296  0.68034256    -0.35900
N302        N  0.01007098  0.03956932  0.68934448    -0.56500
N303        N  0.05338335  0.99426859  0.68708854    -0.35900
N304        N  0.01094770  0.95147501  0.68101337    -0.56500
C305        C  0.95173672  0.01940870  0.68855408     0.27700
C306        C  0.95218203  0.97308896  0.68438691     0.27700
C307        C  0.06940010  0.01710694  0.69345102     0.27700
C308        C  0.06958591  0.97062619  0.69065792     0.27700
C309        C  0.98769087  0.05694136  0.68449770     0.36300
C310        C  0.03321212  0.05564688  0.68611378     0.36300
C311        C  0.98831965  0.93607820  0.67309221     0.36300
C312        C  0.03365301  0.93458834  0.67689715     0.36300
C313        C  0.92593436  0.00992863  0.69802665    -0.21200
C314        C  0.92621031  0.98082256  0.69542574    -0.21200
C315        C  0.09629144  0.00789883  0.70065541    -0.21200
C316        C  0.09639945  0.97877317  0.69891312    -0.21200
C317        C  0.99668186  0.08422778  0.67842976    -0.22300
C318        C  0.02543236  0.08345784  0.67964696    -0.22300
C319        C  0.99665730  0.90931160  0.66363484    -0.22300
C320        C  0.02524317  0.90820134  0.66647855    -0.22300
C321        C  0.95932210  0.04848195  0.68634584    -0.17600
C322        C  0.96021487  0.94483200  0.67704183    -0.17600
C323        C  0.06152527  0.94213553  0.68448358    -0.17600
C324        C  0.06122148  0.04606163  0.69039955    -0.17600
H325        H  0.90867932  0.02262909  0.70618826     0.15300
H326        H  0.90915921  0.96694304  0.70119050     0.15300
H327        H  0.11440502  0.02073486  0.70567139     0.15300
H328        H  0.11465677  0.96539601  0.70214856     0.15300
H329        H  0.98395841  0.10276710  0.67343321     0.13600
H330        H  0.03903451  0.10138130  0.67605720     0.13600
H331        H  0.98350796  0.89205866  0.65611370     0.13600
H332        H  0.03804277  0.88979723  0.66164174     0.13600
H333        H  0.98671311  0.99753770  0.66939963     0.26800
H334        H  0.03346410  0.99525879  0.67786610     0.26800
O335        O  0.30519021  0.19864783  0.74592287    -0.80200
O336        O  0.25482792  0.29906422  0.66877222    -0.64900
O337        O  0.27602376  0.24824864  0.73042410    -1.11500
C338        C  0.20518344  0.19064500  0.68477788     1.06700
O339        O  0.20976426  0.29193338  0.67632481    -0.78100
O340        O  0.18836493  0.25002315  0.71054246    -0.65700
Ni341      Ni  0.31423128  0.23706059  0.73382444     1.34900
C342        C  0.19752332  0.24659494  0.73701529     0.85400
O343        O  0.28998916  0.30274793  0.71527660    -0.78600
O344        O  0.32750839  0.27506035  0.72428437    -0.88900
C345        C  0.22952984  0.30666355  0.66579544     0.85000
O346        O  0.31731735  0.22514796  0.69305258    -0.67100
O347        O  0.19988495  0.21135826  0.66721426    -0.86400
C348        C  0.31305576  0.24156862  0.67095280     0.85800
C349        C  0.31589810  0.29950116  0.72104104     1.07400
H350        H  0.25266297  0.23478100  0.66820352     0.39200
O351        O  0.24365559  0.24370390  0.68495892    -1.09100
O352        O  0.22235482  0.23846806  0.74308439    -0.65700
Ni353      Ni  0.24988493  0.21994911  0.71843529     1.26300
O354        O  0.29608010  0.26253422  0.67217866    -0.65900
O355        O  0.22292332  0.19187701  0.70624200    -0.78200
C356        C  0.28326854  0.18725416  0.75656355     0.85200
O357        O  0.25883907  0.19678675  0.75149602    -0.65400
Ni358      Ni  0.20616660  0.25131124  0.67246662     1.27400
Ni359      Ni  0.26659123  0.27382905  0.69931074     1.26100
H360        H  0.27056463  0.25656554  0.74927308     0.39800
O361        O  0.79980484  0.29327873  0.75892619    -0.80200
O362        O  0.70673179  0.25331559  0.66925548    -0.64900
O363        O  0.75042114  0.26559487  0.73910883    -1.11500
C364        C  0.80645939  0.18997288  0.70046697     1.06700
O365        O  0.70734553  0.20629690  0.67355126    -0.78100
O366        O  0.73620021  0.18286107  0.72060358    -0.65700
Ni367      Ni  0.76120738  0.30350091  0.75010297     1.34900
C368        C  0.74555841  0.18874259  0.74653294     0.85400
O369        O  0.69965815  0.28711168  0.71587303    -0.78600
O370        O  0.72365190  0.31819724  0.74392515    -0.88900
C371        C  0.69698254  0.22918426  0.66273185     0.85000
O372        O  0.77175028  0.31644227  0.71132793    -0.67100
O373        O  0.78413070  0.18187784  0.68710697    -0.86400
C374        C  0.76207129  0.31065095  0.68552116     0.85800
C375        C  0.70130821  0.31022557  0.73059644     1.07400
H376        H  0.76709229  0.24170579  0.67639020     0.39200
O377        O  0.75682971  0.23401546  0.69298560    -1.09100
O378        O  0.76181476  0.20956483  0.75162578    -0.65700
Ni379      Ni  0.77910982  0.23901274  0.72800936     1.26300
O380        O  0.74555703  0.29001071  0.68058539    -0.65900
O381        O  0.80770011  0.21264254  0.71595995    -0.78200
C382        C  0.81079136  0.27026700  0.76865758     0.85200
O383        O  0.80081085  0.24618090  0.76251572    -0.65400
Ni384      Ni  0.74618965  0.19618073  0.68176422     1.27400
Ni385      Ni  0.72816884  0.26056678  0.70401424     1.26100
H386        H  0.74016642  0.25795460  0.75571813     0.39800
O387        O  0.70795561  0.79835228  0.67506137    -0.80200
O388        O  0.80454306  0.75159397  0.75753804    -0.64900
O389        O  0.75810016  0.76820755  0.69034324    -1.11500
C390        C  0.70231239  0.69382001  0.72818180     1.06700
O391        O  0.80217428  0.70481003  0.75236203    -0.78100
O392        O  0.77141023  0.68406155  0.70557264    -0.65700
Ni393      Ni  0.74711765  0.80694507  0.68254721     1.34900
C394        C  0.76146834  0.69085998  0.68008888     0.85400
O395        O  0.81012013  0.78609333  0.71153413    -0.78600
O396        O  0.78533263  0.81960529  0.68700175    -0.88900
C397        C  0.81355617  0.72690358  0.76340139     0.85000
O398        O  0.73842741  0.81803243  0.72279560    -0.67100
O399        O  0.72464805  0.68438957  0.74066842    -0.86400
C400        C  0.74924472  0.81052580  0.74766771     0.85800
C401        C  0.80829866  0.80951818  0.69748640     1.07400
H402        H  0.74321027  0.74280929  0.75260677     0.39200
O403        O  0.75278956  0.73518695  0.73538450    -1.09100
O404        O  0.74561962  0.71256760  0.67602475    -0.65700
Ni405      Ni  0.72955889  0.74224263  0.70119422     1.26300
O406        O  0.76627433  0.78972292  0.75004319    -0.65900
O407        O  0.70110217  0.71676372  0.71325383    -0.78200
C408        C  0.69720229  0.77650651  0.66274932     0.85200
O409        O  0.70689248  0.75175832  0.66750870    -0.65400
Ni410      Ni  0.76292426  0.69672842  0.74513466     1.27400
Ni411      Ni  0.78165579  0.76076248  0.72413048     1.26100
H412        H  0.76744983  0.76121868  0.67278724     0.39800
N413        N  0.45663750  0.50642930  0.73277886    -0.35900
N414        N  0.49809984  0.55060924  0.73099256    -0.56500
N415        N  0.54227349  0.50694841  0.73313310    -0.35900
N416        N  0.50152906  0.46292016  0.73181283    -0.56500
C417        C  0.44066038  0.52905575  0.72417464     0.27700
C418        C  0.44247879  0.48251004  0.72548456     0.27700
C419        C  0.55653568  0.53046506  0.72557255     0.27700
C420        C  0.55824241  0.48420904  0.72552523     0.27700
C421        C  0.47504295  0.56683454  0.73581517     0.36300
C422        C  0.52055342  0.56691541  0.73752875     0.36300
C423        C  0.47926201  0.44746459  0.74009698     0.36300
C424        C  0.52457433  0.44740136  0.73914321     0.36300
C425        C  0.41590805  0.51924327  0.71159812    -0.21200
C426        C  0.41727148  0.49002154  0.71196065    -0.21200
C427        C  0.58159108  0.52264521  0.71242863    -0.21200
C428        C  0.58262514  0.49340871  0.71232268    -0.21200
C429        C  0.48304500  0.59374726  0.74507940    -0.22300
C430        C  0.51177568  0.59362504  0.74665022    -0.22300
C431        C  0.48827326  0.42224982  0.75328260    -0.22300
C432        C  0.51699227  0.42210805  0.75242653    -0.22300
C433        C  0.44722958  0.55809493  0.72940475    -0.17600
C434        C  0.45122674  0.45427572  0.73229241    -0.17600
C435        C  0.55218517  0.45567879  0.73272743    -0.17600
C436        C  0.54873388  0.55856993  0.73307633    -0.17600
H437        H  0.39842508  0.53154424  0.70305587     0.15300
H438        H  0.40128284  0.47603602  0.70329957     0.15300
H439        H  0.59768375  0.53659299  0.70423530     0.15300
H440        H  0.59960716  0.48044639  0.70396000     0.15300
H441        H  0.46986449  0.61188566  0.74982488     0.13600
H442        H  0.52464770  0.61145065  0.75312663     0.13600
H443        H  0.47546414  0.40548509  0.76223006     0.13600
H444        H  0.53065040  0.40538440  0.76072825     0.13600
H445        H  0.47483025  0.50713341  0.74573003     0.26800
H446        H  0.52459655  0.50666923  0.74649443     0.26800
N447        N  0.45991843  0.49316619  0.19432136    -0.35900
N448        N  0.50149291  0.53789566  0.19286236    -0.56500
N449        N  0.54465583  0.49495250  0.18589398    -0.35900
N450        N  0.50325345  0.45036822  0.18992158    -0.56500
C451        C  0.44369021  0.51579942  0.20115118     0.27700
C452        C  0.44486171  0.46956092  0.19969518     0.27700
C453        C  0.56005431  0.51814894  0.19235023     0.27700
C454        C  0.56098820  0.47196525  0.19151583     0.27700
C455        C  0.47804926  0.55385751  0.18974701     0.36300
C456        C  0.52308908  0.55476603  0.18548401     0.36300
C457        C  0.48074997  0.43373864  0.18551083     0.36300
C458        C  0.52565143  0.43478630  0.18180758     0.36300
C459        C  0.41774727  0.50640366  0.21049449    -0.21200
C460        C  0.41854518  0.47726956  0.20970456    -0.21200
C461        C  0.58640998  0.50981283  0.20241027    -0.21200
C462        C  0.58701491  0.48061902  0.20184475    -0.21200
C463        C  0.48489119  0.58118719  0.18095455    -0.22300
C464        C  0.51336971  0.58163594  0.17785900    -0.22300
C465        C  0.48885715  0.40736555  0.17473183    -0.22300
C466        C  0.51738905  0.40810639  0.17215870    -0.22300
C467        C  0.45078253  0.54454024  0.19639450    -0.17600
C468        C  0.45329431  0.44147008  0.19313159    -0.17600
C469        C  0.55350153  0.44354538  0.18567651    -0.17600
C470        C  0.55150790  0.54653207  0.18728394    -0.17600
H471        H  0.39962201  0.51901973  0.21627225     0.15300
H472        H  0.40126428  0.46346109  0.21485253     0.15300
H473        H  0.60351632  0.52334940  0.20926491     0.15300
H474        H  0.60470479  0.46732152  0.20806825     0.15300
H475        H  0.47096804  0.59906401  0.17713308     0.13600
H476        H  0.52544350  0.59978580  0.17094719     0.13600
H477        H  0.47565877  0.38942389  0.16947776     0.13600
H478        H  0.53056123  0.39085680  0.16446925     0.13600
H479        H  0.47870999  0.49391417  0.18307303     0.26800
H480        H  0.52549629  0.49490717  0.17467864     0.26800
N481        N  0.76997142  0.54004772  0.46284342    -0.35900
N482        N  0.77340822  0.49746307  0.51018500    -0.56500
N483        N  0.77588066  0.45267614  0.46452284    -0.35900
N484        N  0.77718057  0.49511728  0.41761248    -0.56500
C485        C  0.77441088  0.55674520  0.48718703     0.27700
C486        C  0.77668769  0.55547931  0.43834840     0.27700
C487        C  0.78205110  0.43776056  0.48963995     0.27700
C488        C  0.78398704  0.43661333  0.44094374     0.27700
C489        C  0.76630865  0.52057419  0.52667328     0.36300
C490        C  0.76863809  0.47430013  0.52737199     0.36300
C491        C  0.77099664  0.51759842  0.39980843     0.36300
C492        C  0.77366083  0.47148692  0.40069707     0.36300
C493        C  0.78392893  0.58304136  0.47796234    -0.21200
C494        C  0.78539021  0.58224095  0.44729265    -0.21200
C495        C  0.79456655  0.41212260  0.48188330    -0.21200
C496        C  0.79568371  0.41136452  0.45120648    -0.21200
C497        C  0.75705161  0.51203661  0.55443191    -0.22300
C498        C  0.75835701  0.48282385  0.55482149    -0.19900
C499        C  0.76335431  0.50815909  0.37155863    -0.22300
C500        C  0.76504970  0.47899825  0.37211700    -0.22300
C501        C  0.76923116  0.54928605  0.51741271    -0.17600
C502        C  0.77412609  0.54650613  0.40808852    -0.17600
C503        C  0.77941219  0.44336467  0.41043938    -0.17600
C504        C  0.77478956  0.44572529  0.51914997    -0.17600
H505        H  0.78955278  0.60094184  0.49189464     0.15300
H506        H  0.79227998  0.59945394  0.43322069     0.15300
H507        H  0.80194691  0.39551195  0.49677619     0.15300
H508        H  0.80400610  0.39409072  0.43795475     0.15300
H509        H  0.74989980  0.52541910  0.57249308     0.13600
H510        H  0.75234125  0.46948168  0.57329714     0.13600
H511        H  0.75717149  0.52093730  0.35248146     0.13600
H512        H  0.76044334  0.46499489  0.35357013     0.13600
H513        H  0.76038990  0.52027920  0.46271153     0.26800
H514        H  0.76373221  0.47108127  0.46347401     0.26800
N515        N  0.54115751  0.80654623  0.45824599    -0.35900
N516        N  0.50005314  0.81317063  0.50367347    -0.56500
N517        N  0.45639866  0.80572458  0.45731514    -0.35900
N518        N  0.49695543  0.80238602  0.41178076    -0.56500
C519        C  0.55790296  0.81271969  0.48194875     0.27700
C520        C  0.55620858  0.81048554  0.43326235     0.27700
C521        C  0.44194402  0.81675480  0.48027219     0.27700
C522        C  0.43996113  0.80827201  0.43265710     0.27700
C523        C  0.52249051  0.80784596  0.52148940     0.36300
C524        C  0.47728400  0.80995773  0.52081393     0.36300
C525        C  0.51986338  0.79577207  0.39585258     0.36300
C526        C  0.47466410  0.79269896  0.39601323     0.36300
C527        C  0.58408118  0.82040385  0.47193212    -0.21200
C528        C  0.58296066  0.81923074  0.44119679    -0.21200
C529        C  0.41622962  0.82689602  0.47004684    -0.21200
C530        C  0.41496853  0.82148526  0.43991740    -0.21200
C531        C  0.51397325  0.80199595  0.55028596    -0.22300
C532        C  0.48528395  0.80311373  0.54981252    -0.22300
C533        C  0.51211042  0.78209918  0.36962856    -0.22300
C534        C  0.48349375  0.77974948  0.36996047    -0.22300
C535        C  0.55054115  0.80953604  0.51226856    -0.17600
C536        C  0.54750813  0.80318109  0.40393607    -0.17600
C537        C  0.44653487  0.79726942  0.40431212    -0.17600
C538        C  0.44949454  0.81377638  0.51061109    -0.17600
H539        H  0.60222680  0.82586294  0.48532968     0.15300
H540        H  0.60022832  0.82335570  0.42643770     0.15300
H541        H  0.39970782  0.83630260  0.48319412     0.15300
H542        H  0.39751023  0.82634472  0.42515803     0.15300
H543        H  0.52700042  0.79727595  0.56959154     0.13600
H544        H  0.47195431  0.79909289  0.56866661     0.13600
H545        H  0.52565559  0.77437930  0.35216996     0.13600
H546        H  0.47077724  0.76979346  0.35285959     0.13600
H547        H  0.52186533  0.79665124  0.45913317     0.26800
H548        H  0.47440389  0.79327572  0.45929063     0.26800
N549        N  0.18784351  0.45076878  0.47090083    -0.35900
N550        N  0.20455205  0.48572366  0.42103605    -0.56500
N551        N  0.19605610  0.53513819  0.45751175    -0.35900
N552        N  0.17563460  0.50065106  0.50682727    -0.56500
C553        C  0.18814628  0.43077800  0.44921886     0.27700
C554        C  0.17796714  0.43849218  0.49583189     0.27700
C555        C  0.20148054  0.54751391  0.43105339     0.27700
C556        C  0.18375685  0.55503321  0.47469556     0.27700
C557        C  0.20931234  0.45999589  0.40882084     0.36300
C558        C  0.21705164  0.50483420  0.40328227     0.36300
C559        C  0.17669442  0.48104856  0.52879584     0.36300
C560        C  0.17708059  0.52616289  0.52046673     0.36300
C561        C  0.17820873  0.40539591  0.46059370    -0.21200
C562        C  0.17214492  0.41017974  0.49014281    -0.21200
C563        C  0.19254069  0.57562305  0.43137575    -0.21200
C564        C  0.18125359  0.58035663  0.45896367    -0.21200
C565        C  0.22428065  0.46291351  0.38262342    -0.22300
C566        C  0.22952287  0.49131439  0.37936261    -0.22300
C567        C  0.17748597  0.49416925  0.55651117    -0.22300
C568        C  0.17764873  0.52285384  0.55121757    -0.22300
C569        C  0.19962667  0.43401695  0.42046492    -0.17600
C570        C  0.17704890  0.45144858  0.52421002    -0.17600
C571        C  0.17892773  0.55231706  0.50547322    -0.17600
C572        C  0.21547521  0.53444583  0.40717485    -0.17600
H573        H  0.17659367  0.38519284  0.44917560     0.15300
H574        H  0.16479021  0.39445649  0.50576590     0.15300
H575        H  0.19431208  0.59120879  0.41373783     0.15300
H576        H  0.17307847  0.60043973  0.46698808     0.15300
H577        H  0.23089022  0.44641410  0.36738876     0.13600
H578        H  0.24074156  0.50091630  0.36114609     0.13600
H579        H  0.17829619  0.48412687  0.57824779     0.13600
H580        H  0.17891403  0.53930946  0.56805194     0.13600
H581        H  0.19738709  0.47038960  0.47020538     0.26800
H582        H  0.20430047  0.51592132  0.46495886     0.26800
N583        N  0.45721982  0.21664166  0.45646854    -0.35900
N584        N  0.49984713  0.21260890  0.50248809    -0.56500
N585        N  0.54372561  0.21278897  0.45671001    -0.35900
N586        N  0.50137537  0.21893854  0.41116795    -0.56500
C587        C  0.44129075  0.22164285  0.48079591     0.27700
C588        C  0.44226978  0.22497287  0.43210461     0.27700
C589        C  0.55949338  0.21596619  0.48166757     0.27700
C590        C  0.55984856  0.21975122  0.43310708     0.27700
C591        C  0.47716136  0.21098990  0.52026525     0.36300
C592        C  0.52255464  0.20853567  0.52029194     0.36300
C593        C  0.47853494  0.21532955  0.39372209     0.36300
C594        C  0.52372748  0.21372014  0.39371450     0.36300
C595        C  0.41554882  0.23253865  0.47157599    -0.21200
C596        C  0.41629116  0.23491295  0.44094868    -0.21200
C597        C  0.58623369  0.22426674  0.47378045    -0.21200
C598        C  0.58639629  0.22679361  0.44319153    -0.21200
C599        C  0.48561517  0.20643931  0.54959441    -0.22300
C600        C  0.51424854  0.20479039  0.54959862    -0.22300
C601        C  0.48640672  0.20730595  0.36519305    -0.22300
C602        C  0.51507357  0.20659274  0.36511251    -0.22300
C603        C  0.44909657  0.21592328  0.51092317    -0.17600
C604        C  0.45102263  0.22257165  0.40206115    -0.17600
C605        C  0.55168382  0.21812797  0.40268798    -0.17600
C606        C  0.55076583  0.21077387  0.51128777    -0.17600
H607        H  0.39796909  0.23834349  0.48533027     0.15300
H608        H  0.39946329  0.24282289  0.42681244     0.15300
H609        H  0.60390652  0.22811046  0.48848690     0.15300
H610        H  0.60421268  0.23268625  0.42992642     0.15300
H611        H  0.47265280  0.20530744  0.56918623     0.13600
H612        H  0.52745650  0.20208461  0.56918762     0.13600
H613        H  0.47288510  0.20312698  0.34618062     0.13600
H614        H  0.52799075  0.20176901  0.34607492     0.13600
H615        H  0.47610893  0.20565277  0.45610552     0.26800
H616        H  0.52405744  0.20364486  0.45585797     0.26800
C617        C  0.60713250  0.81466968  0.57407833     0.16600
C618        C  0.62713363  0.82320334  0.59542631    -0.32400
C619        C  0.64120216  0.80185901  0.61179370     0.21000
C620        C  0.63525995  0.77334837  0.60740878     0.03200
C621        C  0.61497295  0.76486325  0.58647935    -0.22100
C622        C  0.60130945  0.78611861  0.56976680     0.12400
S623        S  0.58844808  0.83708710  0.55111926    -0.05800
C624        C  0.57296224  0.80762136  0.53540089    -0.09200
C625        C  0.58169074  0.78196206  0.54765237    -0.25900
S626        S  0.65557935  0.75059348  0.62808468    -0.03100
C627        C  0.67261005  0.77968815  0.64271787    -0.16500
C628        C  0.66249425  0.80566331  0.63227756    -0.14500
H629        H  0.63195522  0.84544825  0.59866405     0.20900
H630        H  0.61052776  0.74258658  0.58284886     0.16900
H631        H  0.57390075  0.76138697  0.54080628     0.19400
H632        H  0.67093759  0.82614880  0.63849009     0.12800
C633        C  0.78081242  0.63168230  0.62342318     0.16600
C634        C  0.79055686  0.60664777  0.60957232    -0.32400
C635        C  0.77794334  0.59841882  0.58236705     0.21000
C636        C  0.75677017  0.61463349  0.56939707     0.03200
C637        C  0.74726453  0.63984382  0.58307732    -0.22100
C638        C  0.75968972  0.64794147  0.61041917     0.12400
S639        S  0.79185004  0.64405057  0.65752512    -0.05800
C640        C  0.76770022  0.67150435  0.65454422    -0.09200
C641        C  0.75227061  0.67091531  0.62797657    -0.25900
S642        S  0.74383960  0.60079395  0.53666588    -0.03100
C643        C  0.76720191  0.57272341  0.54023082    -0.16500
C644        C  0.78399583  0.57439497  0.56580615    -0.14500
H645        H  0.80688290  0.59381372  0.61988808     0.20900
H646        H  0.73052621  0.65235127  0.57308450     0.16900
H647        H  0.73551487  0.68567478  0.62245619     0.19400
H648        H  0.79989513  0.55886963  0.57186800     0.12800
C649        C  0.63230733  0.65475907  0.72291173     0.16600
C650        C  0.60590975  0.64455862  0.71446684    -0.32400
C651        C  0.59721412  0.61886220  0.72706465     0.21000
C652        C  0.61385832  0.60425954  0.74756518     0.03200
C653        C  0.64022406  0.61446226  0.75602039    -0.22100
C654        C  0.64911398  0.63988058  0.74303210     0.12400
S655        S  0.64718591  0.68478632  0.70911842    -0.05800
C656        C  0.67661230  0.67693081  0.73023781    -0.09200
C657        C  0.67458420  0.65247777  0.74732168    -0.25900
S658        S  0.59990948  0.57322860  0.75984102    -0.03100
C659        C  0.57149845  0.57963821  0.73667758    -0.16500
C660        C  0.57286357  0.60478650  0.72064500    -0.14500
H661        H  0.59296510  0.65586117  0.69834255     0.20900
H662        H  0.65345855  0.60279986  0.77159011     0.16900
H663        H  0.69108215  0.64401276  0.76158261     0.19400
H664        H  0.55721722  0.61196485  0.70463003     0.12800
C665        C  0.78197380  0.36916080  0.62941121     0.16600
C666        C  0.79100557  0.39423179  0.61559587    -0.32400
C667        C  0.78137331  0.39988844  0.58642939     0.21000
C668        C  0.76362703  0.38132277  0.57162926     0.03200
C669        C  0.75490499  0.35605625  0.58528385    -0.22100
C670        C  0.76441244  0.35048090  0.61451955     0.12400
S671        S  0.78981835  0.35940803  0.66534034    -0.05800
C672        C  0.76918282  0.32977648  0.66043359    -0.09200
C673        C  0.75715035  0.32777748  0.63210029    -0.25900
S674        S  0.75335880  0.39259331  0.53689135    -0.03100
C675        C  0.77324032  0.42273907  0.54218241    -0.16500
C676        C  0.78715576  0.42353650  0.56958400    -0.14500
H677        H  0.80449934  0.40898319  0.62730815     0.20900
H678        H  0.74086354  0.34164724  0.57383385     0.16900
H679        H  0.74291306  0.31120260  0.62510753     0.19400
H680        H  0.80056285  0.44068968  0.57688713     0.12800
C681        C  0.60570022  0.19967296  0.57328353     0.16600
C682        C  0.62483510  0.18916026  0.59460091    -0.32400
C683        C  0.64025223  0.20906201  0.61118170     0.21000
C684        C  0.63650677  0.23805990  0.60692921     0.03200
C685        C  0.61709756  0.24852892  0.58606745    -0.22100
C686        C  0.60197779  0.22871847  0.56932093     0.12400
S687        S  0.58573126  0.17924829  0.54994005    -0.05800
C688        C  0.57243570  0.21029248  0.53496625    -0.09200
C689        C  0.58279807  0.23492609  0.54745440    -0.25900
S690        S  0.65814252  0.25881579  0.62779397    -0.03100
C691        C  0.67270644  0.22816036  0.64237311    -0.16500
C692        C  0.66092547  0.20321447  0.63179304    -0.14500
H693        H  0.62798785  0.16652856  0.59767775     0.20900
H694        H  0.61433858  0.27115978  0.58257225     0.16900
H695        H  0.57662984  0.25619885  0.54073247     0.19400
H696        H  0.66772399  0.18201778  0.63808059     0.12800
C697        C  0.63310884  0.35459421  0.72315062     0.16600
C698        C  0.60684574  0.36605574  0.71502426    -0.32400
C699        C  0.59981126  0.39323161  0.72586030     0.21000
C700        C  0.61810064  0.40822691  0.74407019     0.03200
C701        C  0.64432847  0.39680493  0.75214149    -0.22100
C702        C  0.65138896  0.36971968  0.74123907     0.12400
S703        S  0.64594701  0.32230921  0.71179906    -0.05800
C704        C  0.67641370  0.32927865  0.73146287    -0.09200
C705        C  0.67617454  0.35534881  0.74610662    -0.25900
S706        S  0.60580696  0.44078083  0.75493009    -0.03100
C707        C  0.57562325  0.43445249  0.73455027    -0.16500
C708        C  0.57540637  0.40816669  0.72029186    -0.14500
H709        H  0.59259783  0.35437792  0.70072228     0.20900
H710        H  0.65869434  0.40861072  0.76619253     0.16900
H711        H  0.69348126  0.36366365  0.75914016     0.19400
H712        H  0.55836068  0.40051394  0.70643276     0.12800
C713        C  0.36050187  0.24627742  0.60267868     0.16600
C714        C  0.37809782  0.25590515  0.58005639    -0.32400
C715        C  0.39501592  0.23580952  0.56565302     0.21000
C716        C  0.39410297  0.20721147  0.57302668     0.03200
C717        C  0.37661611  0.19756513  0.59591938    -0.22100
C718        C  0.36007124  0.21784172  0.61080552     0.12400
S719        S  0.33921325  0.26768291  0.62326258    -0.05800
C720        C  0.33010693  0.23832116  0.64386099    -0.09200
C721        C  0.34279560  0.21314172  0.63472039    -0.25900
S722        S  0.41620674  0.18629515  0.55254667    -0.03100
C723        C  0.42700738  0.21649744  0.53418806    -0.16500
C724        C  0.41401651  0.24129618  0.54366603    -0.14500
H725        H  0.37884383  0.27821602  0.57420510     0.20900
H726        H  0.37623366  0.17533192  0.60213045     0.16900
H727        H  0.33998877  0.19270968  0.64535515     0.19400
H728        H  0.41835206  0.26224666  0.53493191     0.12800
C729        C  0.17894332  0.39956385  0.58975207     0.16600
C730        C  0.17364434  0.37808824  0.61050665    -0.32400
C731        C  0.19680707  0.36501827  0.62436309     0.21000
C732        C  0.22392707  0.37359629  0.61861377     0.03200
C733        C  0.22917055  0.39548313  0.59851694    -0.22100
C734        C  0.20615593  0.40781173  0.58393019     0.12400
S735        S  0.15410348  0.41580536  0.56782499    -0.05800
C736        C  0.18093773  0.43304125  0.55038563    -0.09200
C737        C  0.20737486  0.42716535  0.56145326    -0.25900
S738        S  0.24932143  0.35363993  0.63544389    -0.03100
C739        C  0.22318765  0.33305397  0.64987882    -0.16500
C740        C  0.19624211  0.34178176  0.64261889    -0.14500
H741        H  0.15255544  0.37091552  0.61453496     0.20900
H742        H  0.25035100  0.40161409  0.59330380     0.16900
H743        H  0.22651916  0.43579715  0.55260809     0.19400
H744        H  0.17738328  0.33084613  0.64902361     0.12800
C745        C  0.40849559  0.38634878  0.71765392     0.16600
C746        C  0.39990113  0.35883464  0.71043579    -0.32400
C747        C  0.37269051  0.35112114  0.71795827     0.21000
C748        C  0.35442655  0.37021628  0.73124122     0.03200
C749        C  0.36324340  0.39769261  0.73901566    -0.22100
C750        C  0.39088955  0.40511917  0.73231297     0.12400
S751        S  0.44068785  0.39944887  0.71020643    -0.05800
C752        C  0.43122234  0.43028502  0.72850043    -0.09200
C753        C  0.40394064  0.43029800  0.73899767    -0.25900
S754        S  0.32183073  0.35680460  0.73731428    -0.03100
C755        C  0.33351326  0.32488708  0.72301002    -0.16500
C756        C  0.36095289  0.32500984  0.71356068    -0.14500
H757        H  0.41393273  0.34397582  0.69964041     0.20900
H758        H  0.34929153  0.41248809  0.75000895     0.16900
H759        H  0.39429452  0.44766012  0.75107572     0.19400
H760        H  0.37165703  0.30698179  0.70373532     0.12800
C761        C  0.89629032  0.89643863  0.66659468     0.16600
C762        C  0.86989019  0.88533165  0.65985296    -0.32400
C763        C  0.86142528  0.86125219  0.67566975     0.21000
C764        C  0.87879729  0.84816526  0.69660059     0.03200
C765        C  0.90535527  0.85914132  0.70318598    -0.22100
C766        C  0.91345600  0.88381164  0.68803016     0.12400
S767        S  0.90936766  0.92676944  0.65145819    -0.05800
C768        C  0.93793485  0.92301194  0.67495653    -0.09200
C769        C  0.93742872  0.89898807  0.69293150    -0.25900
S770        S  0.86417820  0.81963352  0.71394123    -0.03100
C771        C  0.83404024  0.82602233  0.69341863    -0.16500
C772        C  0.83574399  0.84868066  0.67377330    -0.14500
H773        H  0.85615370  0.89558382  0.64369294     0.20900
H774        H  0.91871664  0.84943956  0.72006134     0.16900
H775        H  0.95334629  0.89349451  0.70937159     0.19400
H776        H  0.81887818  0.85593642  0.65927300     0.12800
C777        C  0.89415718  0.09778476  0.67658192     0.16600
C778        C  0.86814918  0.10977319  0.66853304    -0.32400
C779        C  0.85931627  0.13436536  0.68362936     0.21000
C780        C  0.87585828  0.14680076  0.70553041     0.03200
C781        C  0.90193768  0.13473241  0.71368204    -0.22100
C782        C  0.91060469  0.10979302  0.69883027     0.12400
S783        S  0.90803612  0.06762311  0.66125164    -0.05800
C784        C  0.93629739  0.07048448  0.68542652    -0.09200
C785        C  0.93479601  0.09420295  0.70407104    -0.25900
S786        S  0.86104780  0.17647882  0.72127587    -0.03100
C787        C  0.83199491  0.17178585  0.69849428    -0.16500
C788        C  0.83421679  0.14847189  0.67956820    -0.14500
H789        H  0.85515760  0.10009821  0.65144778     0.20900
H790        H  0.91473118  0.14416092  0.73108799     0.16900
H791        H  0.95033453  0.09945255  0.72090996     0.19400
H792        H  0.81811525  0.14190680  0.66389443     0.12800
C793        C  0.12217953  0.09720772  0.70484183     0.16600
C794        C  0.14380697  0.11350700  0.71716471    -0.32400
C795        C  0.15948541  0.13019847  0.69767779     0.21000
C796        C  0.15402081  0.13057547  0.66720680     0.03200
C797        C  0.13298257  0.11350785  0.65473210    -0.22100
C798        C  0.11711019  0.09699484  0.67428602     0.12400
S799        S  0.09980203  0.07685949  0.72499373    -0.05800
C800        C  0.08372976  0.06754287  0.69185208    -0.09200
C801        C  0.09511718  0.07980013  0.66666480    -0.25900
S802        S  0.17294424  0.15507048  0.64798025    -0.03100
C803        C  0.18844804  0.16473332  0.68135811    -0.16500
C804        C  0.17965246  0.14928968  0.70581280    -0.14500
H805        H  0.14765928  0.11387791  0.74103119     0.20900
H806        H  0.12850612  0.11387247  0.63098384     0.16900
H807        H  0.08777698  0.07611296  0.64404869     0.19400
H808        H  0.18602490  0.15342269  0.72868006     0.12800
C809        C  0.21919591  0.65721600  0.56775998     0.16600
C810        C  0.22564348  0.63455948  0.54907284    -0.32400
C811        C  0.20397691  0.61616200  0.54156635     0.21000
C812        C  0.17682767  0.62033457  0.55140665     0.03200
C813        C  0.17016197  0.64361110  0.56936211    -0.22100
C814        C  0.19204979  0.66170358  0.57749228     0.12400
S815        S  0.24358228  0.67866446  0.58358938    -0.05800
C816        C  0.21699774  0.69332767  0.60402960    -0.09200
C817        C  0.19056042  0.68305866  0.59785191    -0.25900
S818        S  0.15392131  0.59447107  0.54086236    -0.03100
C819        C  0.18145256  0.57830185  0.52317446    -0.16500
C820        C  0.20671708  0.59205793  0.52533784    -0.14500
H821        H  0.24690029  0.63056432  0.54199289     0.20900
H822        H  0.14921388  0.64670996  0.57777622     0.16900
H823        H  0.17180223  0.68881362  0.60985189     0.19400
H824        H  0.22604258  0.58464558  0.51549738     0.12800
C825        C  0.34895928  0.77848058  0.58095640     0.16600
C826        C  0.36474493  0.77441843  0.55526193    -0.32400
C827        C  0.38740859  0.79253720  0.55104359     0.21000
C828        C  0.39358673  0.81438874  0.57079800     0.03200
C829        C  0.37756968  0.81867572  0.59625464    -0.22100
C830        C  0.35554974  0.79991874  0.60106953     0.12400
S831        S  0.32256797  0.75686428  0.59192790    -0.05800
C832        C  0.32148445  0.77620858  0.62449908    -0.09200
C833        C  0.33971792  0.79877908  0.62606669    -0.25900
S834        S  0.42246520  0.83357052  0.56206166    -0.03100
C835        C  0.42651617  0.81134269  0.53195134    -0.16500
C836        C  0.40632646  0.79066023  0.52871711    -0.14500
H837        H  0.36029323  0.75720570  0.53990892     0.20900
H838        H  0.38274724  0.83514220  0.61223577     0.16900
H839        H  0.34214785  0.81277815  0.64510261     0.19400
H840        H  0.40584529  0.77488412  0.51109983     0.12800
C841        C  0.39016918  0.61688412  0.73699038     0.16600
C842        C  0.37303882  0.63944883  0.74649561    -0.32400
C843        C  0.35453316  0.65181590  0.72554501     0.21000
C844        C  0.35240141  0.64152454  0.69662697     0.03200
C845        C  0.36976459  0.61906710  0.68701290    -0.22100
C846        C  0.38904097  0.60737715  0.70773543     0.12400
S847        S  0.41439948  0.59958290  0.75890148    -0.05800
C848        C  0.42424856  0.58000590  0.72808983    -0.09200
C849        C  0.40879977  0.58653559  0.70238662    -0.25900
S850        S  0.32868654  0.65974155  0.67467905    -0.03100
C851        C  0.32241690  0.68219425  0.70443105    -0.16500
C852        C  0.33765949  0.67522555  0.73003887    -0.14500
H853        H  0.37451582  0.64744787  0.76911889     0.20900
H854        H  0.36874722  0.61148952  0.66420509     0.16900
H855        H  0.41202220  0.57667538  0.68084397     0.19400
H856        H  0.33694154  0.68713647  0.75070639     0.12800
C857        C  0.11702535  0.88467767  0.70500022     0.16600
C858        C  0.13621194  0.86651933  0.71956605    -0.32400
C859        C  0.14830465  0.84445166  0.70288828     0.21000
C860        C  0.14143415  0.84053462  0.67301732     0.03200
C861        C  0.12290609  0.85927003  0.65818402    -0.22100
C862        C  0.11092646  0.88146409  0.67487220     0.12400
S863        S  0.09870095  0.91138697  0.72190584    -0.05800
C864        C  0.08305972  0.91902875  0.68787712    -0.09200
C865        C  0.09183157  0.90142234  0.66478977    -0.25900
S866        S  0.15616416  0.81081407  0.65757864    -0.03100
C867        C  0.17217833  0.80388011  0.69156490    -0.16500
C868        C  0.16637984  0.82381044  0.71349498    -0.14500
H869        H  0.14098905  0.86906305  0.74309551     0.20900
H870        H  0.11752161  0.85624815  0.63485961     0.16900
H871        H  0.08425390  0.90286178  0.64196560     0.19400
H872        H  0.17384216  0.82245297  0.73636938     0.12800
C873        C  0.12652742  0.69911932  0.86521122     0.16600
C874        C  0.14931340  0.71222706  0.85165485    -0.32400
C875        C  0.15454311  0.70543162  0.82178836     0.21000
C876        C  0.13815654  0.68599714  0.80637675     0.03200
C877        C  0.11597502  0.67220406  0.82022691    -0.22100
C878        C  0.11042581  0.67939311  0.84988804     0.12400
S879        S  0.11449977  0.70738574  0.89977529    -0.05800
C880        C  0.08732442  0.68417639  0.89346885    -0.09200
C881        C  0.08823539  0.67024035  0.86624394    -0.25900
S882        S  0.14618009  0.68238983  0.76970308    -0.03100
C883        C  0.17179702  0.70749245  0.77500712    -0.16500
C884        C  0.17420182  0.71764742  0.80394634    -0.14500
H885        H  0.16159285  0.72799822  0.86342226     0.20900
H886        H  0.10284652  0.65747464  0.80800346     0.16900
H887        H  0.07258166  0.65548858  0.85821433     0.19400
H888        H  0.18873791  0.73384532  0.81122666     0.12800
C889        C  0.87599486  0.73048157  0.81782915     0.16600
C890        C  0.89711558  0.73877399  0.83792486    -0.32400
C891        C  0.91135891  0.71726511  0.85375681     0.21000
C892        C  0.90498362  0.68880345  0.84958476     0.03200
C893        C  0.88394332  0.68056444  0.82948376    -0.22100
C894        C  0.86962343  0.70201778  0.81379078     0.12400
S895        S  0.85554103  0.75323539  0.79730534    -0.05800
C896        C  0.83811530  0.72405470  0.78330597    -0.09200
C897        C  0.84801089  0.69817965  0.79390571    -0.25900
S898        S  0.92434128  0.66585825  0.87100835    -0.03100
C899        C  0.94099125  0.69487857  0.88602197    -0.16500
C900        C  0.93211500  0.72090478  0.87475654    -0.14500
H901        H  0.90199416  0.76098933  0.84132002     0.20900
H902        H  0.87876385  0.65838063  0.82642886     0.16900
H903        H  0.83938746  0.67769416  0.78798466     0.19400
H904        H  0.94024836  0.74128285  0.88179969     0.12800
C905        C  0.74255210  0.85015224  0.82318681     0.16600
C906        C  0.74684320  0.86143014  0.85197374    -0.32400
C907        C  0.73201839  0.88627466  0.85968948     0.21000
C908        C  0.71327010  0.89893042  0.83985223     0.03200
C909        C  0.70864753  0.88737519  0.81129099    -0.22100
C910        C  0.72396905  0.86295612  0.80329480     0.12400
S911        S  0.76013071  0.82157787  0.80861720    -0.05800
C912        C  0.74265760  0.82711394  0.77507960    -0.09200
C913        C  0.72388854  0.84984593  0.77576200    -0.25900
S914        S  0.69870524  0.92992469  0.85261273    -0.03100
C915        C  0.71853294  0.92626669  0.88482930    -0.16500
C916        C  0.73490502  0.90171563  0.88566657    -0.14500
H917        H  0.76181252  0.85182348  0.86730845     0.20900
H918        H  0.69444513  0.89758721  0.79557181     0.16900
H919        H  0.71144240  0.85698079  0.75682326     0.19400
H920        H  0.74908718  0.89616303  0.90379687     0.12800
C921        C  0.72549382  0.12936768  0.80159729     0.16600
C922        C  0.71673787  0.10382694  0.81461113    -0.32400
C923        C  0.72537372  0.09802011  0.84406427     0.21000
C924        C  0.74189830  0.11689529  0.85997343     0.03200
C925        C  0.75045301  0.14264839  0.84705105    -0.22100
C926        C  0.74197218  0.14836648  0.81743080     0.12400
S927        S  0.71853826  0.13931412  0.76556861    -0.05800
C928        C  0.73825865  0.16941230  0.77146453    -0.09200
C929        C  0.74926433  0.17148229  0.80031340    -0.25900
S930        S  0.75078483  0.10536195  0.89510256    -0.03100
C931        C  0.73197648  0.07467175  0.88840939    -0.16500
C932        C  0.71946555  0.07398388  0.86023239    -0.14500
H933        H  0.70414064  0.08885156  0.80209391     0.20900
H934        H  0.76356351  0.15732745  0.85935311     0.16900
H935        H  0.76279641  0.18839010  0.80799745     0.19400
H936        H  0.70672509  0.05670678  0.85193722     0.12800
C937        C  0.90712152  0.29916227  0.85164696     0.16600
C938        C  0.88371098  0.30931754  0.83580045    -0.32400
C939        C  0.86931562  0.29001430  0.81756976     0.21000
C940        C  0.87779001  0.26183683  0.81523932     0.03200
C941        C  0.90143442  0.25178067  0.83070277    -0.22100
C942        C  0.91583130  0.27108286  0.84889366     0.12400
S943        S  0.92648447  0.31876074  0.87626461    -0.05800
C944        C  0.94654605  0.28883933  0.88253944    -0.09200
C945        C  0.93864817  0.26509022  0.86646904    -0.25900
S946        S  0.85671874  0.24144295  0.79322402    -0.03100
C947        C  0.83639102  0.27127671  0.78690312    -0.16500
C948        C  0.84566919  0.29564118  0.80107325    -0.14500
H949        H  0.87673406  0.33116143  0.83798683     0.20900
H950        H  0.90803220  0.22977012  0.82904091     0.16900
H951        H  0.94856569  0.24438657  0.86835067     0.19400
H952        H  0.83529209  0.31615991  0.79995341     0.12800
C953        C  0.13049760  0.27854097  0.84685464     0.16600
C954        C  0.15547384  0.28267017  0.83117491    -0.32400
C955        C  0.15914060  0.26732399  0.80451701     0.21000
C956        C  0.13864586  0.24908015  0.79388893     0.03200
C957        C  0.11396799  0.24478031  0.80965576    -0.22100
C958        C  0.11043605  0.25981160  0.83629723     0.12400
S959        S  0.12172961  0.29489123  0.87962867    -0.05800
C960        C  0.09086204  0.27604479  0.87898190    -0.09200
C961        C  0.08782134  0.25817989  0.85463956    -0.25900
S962        S  0.14620957  0.23306958  0.76083647    -0.03100
C963        C  0.17762310  0.25054925  0.76139401    -0.16500
C964        C  0.18191510  0.26800629  0.78599146    -0.14500
H965        H  0.17130416  0.29712896  0.83938288     0.20900
H966        H  0.09812548  0.23033070  0.80144748     0.16900
H967        H  0.06996678  0.24460584  0.85068753     0.19400
H968        H  0.20037340  0.28075751  0.78978860     0.12800
C969        C  0.31977988  0.09259774  0.83936137     0.16600
C970        C  0.32804540  0.11603720  0.82256341    -0.32400
C971        C  0.30767207  0.12934921  0.80466990     0.21000
C972        C  0.28038525  0.11956297  0.80320373     0.03200
C973        C  0.27230697  0.09564994  0.81934526    -0.22100
C974        C  0.29255907  0.08260985  0.83756915     0.12400
S975        S  0.34052814  0.07550522  0.86489392    -0.05800
C976        C  0.31214879  0.05493017  0.87309064    -0.09200
C977        C  0.28813956  0.06065909  0.85674114    -0.25900
S978        S  0.25831371  0.13983685  0.78190499    -0.03100
C979        C  0.28622202  0.16161003  0.77478220    -0.16500
C980        C  0.31122184  0.15338281  0.78812173    -0.14500
H981        H  0.34913079  0.12417528  0.82421181     0.20900
H982        H  0.25094231  0.08817959  0.81859221     0.16900
H983        H  0.26826363  0.05023879  0.85985680     0.19400
H984        H  0.33071590  0.16482319  0.78649099     0.12800
C985        C  0.27297489  0.87768836  0.85410818     0.16600
C986        C  0.25642700  0.86084487  0.83537972    -0.32400
C987        C  0.26882623  0.83647679  0.82327593     0.21000
C988        C  0.29641469  0.82909291  0.82957193     0.03200
C989        C  0.31281405  0.84565610  0.84873342    -0.22100
C990        C  0.30047395  0.87010466  0.86071300     0.12400
S991        S  0.26206556  0.90852087  0.87030886    -0.05800
C992        C  0.29482600  0.91092858  0.88618963    -0.09200
C993        C  0.31314110  0.88915006  0.87932795    -0.25900
S994        S  0.30828633  0.80011602  0.81063444    -0.03100
C995        C  0.27575193  0.79806332  0.79400031    -0.16500
C996        C  0.25671433  0.81846801  0.80316536    -0.14500
H997        H  0.23503067  0.86677518  0.82999039     0.20900
H998        H  0.33441758  0.84010084  0.85354080     0.16900
H999        H  0.33442310  0.88736433  0.88767585     0.19400
H1000       H  0.23568571  0.82101194  0.79426227     0.12800
C1001       C  0.38256683  0.77511130  0.35602937     0.16600
C1002       C  0.35811385  0.76287543  0.34409158    -0.32400
C1003       C  0.35218369  0.76734063  0.31359564     0.21000
C1004       C  0.36971607  0.78346150  0.29601536     0.03200
C1005       C  0.39374880  0.79606100  0.30805675    -0.22100
C1006       C  0.39979670  0.79142197  0.33832298     0.12400
S1007       S  0.39463201  0.77095990  0.39189110    -0.05800
C1008       C  0.42329009  0.79128269  0.38275058    -0.09200
C1009       C  0.42288250  0.80101963  0.35354897    -0.25900
S1010       S  0.35999801  0.78535335  0.25935864    -0.03100
C1011       C  0.33177681  0.76427462  0.26745728    -0.16500
C1012       C  0.33017459  0.75635796  0.29732064    -0.14500
H1013       H  0.34467489  0.74996180  0.35777377     0.20900
H1014       H  0.40752562  0.80844313  0.29422041     0.16900
H1015       H  0.43894756  0.81407552  0.34380906     0.19400
H1016       H  0.31423151  0.74274318  0.30643954     0.12800
C1017       C  0.22777529  0.61022269  0.30084565     0.16600
C1018       C  0.21505734  0.58617865  0.31246685    -0.32400
C1019       C  0.22509063  0.57605865  0.33982272     0.21000
C1020       C  0.24757904  0.58852458  0.35453405     0.03200
C1021       C  0.26121633  0.61187203  0.34216698    -0.22100
C1022       C  0.25041566  0.62272320  0.31526963     0.12400
S1023       S  0.21469962  0.62881470  0.27134840    -0.05800
C1024       C  0.23947962  0.65407238  0.27895364    -0.09200
C1025       C  0.25776177  0.64775186  0.30218703    -0.25900
S1026       S  0.25424962  0.57509413  0.38925455    -0.03100
C1027       C  0.22635295  0.55278808  0.38357375    -0.16500
C1028       C  0.21295949  0.55537191  0.35632276    -0.14500
H1029       H  0.19679011  0.57704556  0.30177450     0.20900
H1030       H  0.27812544  0.62232480  0.35400277     0.16900
H1031       H  0.27379458  0.66186482  0.31065058     0.19400
H1032       H  0.19444049  0.54373928  0.34969147     0.12800
C1033       C  0.36317419  0.63583461  0.17577171     0.16600
C1034       C  0.38303465  0.61783880  0.16285064    -0.32400
C1035       C  0.39733945  0.59889588  0.18177949     0.21000
C1036       C  0.39229125  0.59800641  0.21221769     0.03200
C1037       C  0.37186174  0.61536977  0.22496082    -0.22100
C1038       C  0.35745022  0.63415399  0.20601811     0.12400
S1039       S  0.34525865  0.66201408  0.15723882    -0.05800
C1040       C  0.32962679  0.67026013  0.19055622    -0.09200
C1041       C  0.33780537  0.65352611  0.21451160    -0.25900
S1042       S  0.41319867  0.57503355  0.23173925    -0.03100
C1043       C  0.42829602  0.56598119  0.19835767    -0.16500
C1044       C  0.41778381  0.58018147  0.17361012    -0.14500
H1045       H  0.38758938  0.61898970  0.13925649     0.20900
H1046       H  0.36780212  0.61471755  0.24868985     0.16900
H1047       H  0.33074334  0.65633295  0.23723030     0.19400
H1048       H  0.42506097  0.57719968  0.15100724     0.12800
C1049       C  0.26523217  0.86151451  0.10797363     0.16600
C1050       C  0.25843662  0.88176176  0.08618916    -0.32400
C1051       C  0.28062656  0.89563601  0.07237782     0.21000
C1052       C  0.30832404  0.88971868  0.07984088     0.03200
C1053       C  0.31506458  0.86986990  0.10191974    -0.22100
C1054       C  0.29292603  0.85597467  0.11564833     0.12400
S1055       S  0.24158846  0.84127280  0.12653489    -0.05800
C1056       C  0.26946340  0.82553861  0.14489975    -0.09200
C1057       C  0.29545439  0.83546438  0.13687982    -0.25900
S1058       S  0.33229369  0.90745105  0.05924931    -0.03100
C1059       C  0.30463545  0.92287595  0.04048871    -0.16500
C1060       C  0.27839001  0.91507848  0.04995705    -0.14500
H1061       H  0.23689665  0.88611931  0.07988962     0.20900
H1062       H  0.33662833  0.86504546  0.10773781     0.16900
H1063       H  0.31525316  0.82767830  0.14572179     0.19400
H1064       H  0.25885985  0.92256459  0.04019572     0.12800
C1065       C  0.11970165  0.71765444  0.07383021     0.16600
C1066       C  0.14066790  0.73320551  0.08846706    -0.32400
C1067       C  0.15074321  0.72280041  0.11592566     0.21000
C1068       C  0.14049307  0.69794596  0.12817972     0.03200
C1069       C  0.11968984  0.68228965  0.11344742    -0.22100
C1070       C  0.10944113  0.69281339  0.08614435     0.12400
S1071       S  0.10405334  0.72722666  0.04086370    -0.05800
C1072       C  0.08330693  0.69765402  0.04395715    -0.09200
C1073       C  0.08847491  0.68121455  0.06906029    -0.25900
S1074       S  0.15435392  0.68963045  0.16235140    -0.03100
C1075       C  0.17421122  0.71997953  0.16021107    -0.16500
C1076       C  0.17028481  0.73544997  0.13411771    -0.14500
H1077       H  0.14844475  0.75280168  0.07911105     0.20900
H1078       H  0.11145377  0.66304588  0.12313904     0.16900
H1079       H  0.07721468  0.66208765  0.07463135     0.19400
H1080       H  0.18038848  0.75541744  0.12923589     0.12800
C1081       C  0.75872991  0.64549651  0.32076137     0.16600
C1082       C  0.75060312  0.63297542  0.34774134    -0.32400
C1083       C  0.76440147  0.60794503  0.35686552     0.21000
C1084       C  0.78583129  0.59622859  0.34018124     0.03200
C1085       C  0.79397491  0.60875935  0.31312070    -0.22100
C1086       C  0.77965901  0.63345763  0.30360493     0.12400
S1087       S  0.74324279  0.67483602  0.30514011    -0.05800
C1088       C  0.76440678  0.67052130  0.27449835    -0.09200
C1089       C  0.78296697  0.64766484  0.27693155    -0.25900
S1090       S  0.79971264  0.56563635  0.35503807    -0.03100
C1091       C  0.77595214  0.56823849  0.38374754    -0.16500
C1092       C  0.75859909  0.59200234  0.38177602    -0.14500
H1093       H  0.73376247  0.64200762  0.36072120     0.20900
H1094       H  0.81028682  0.59928034  0.29972907     0.16900
H1095       H  0.79733297  0.64115028  0.25966928     0.19400
H1096       H  0.74231777  0.59709166  0.39755440     0.12800
C1097       C  0.63723393  0.76712450  0.31781733     0.16600
C1098       C  0.61909833  0.75904252  0.34044742    -0.32400
C1099       C  0.60152697  0.77996769  0.35224399     0.21000
C1100       C  0.60173441  0.80777661  0.34190619     0.03200
C1101       C  0.61988071  0.81588251  0.31911943    -0.22100
C1102       C  0.63766459  0.79489972  0.30743623     0.12400
S1103       S  0.66067834  0.74488021  0.30139678    -0.05800
C1104       C  0.67149855  0.77330585  0.28042332    -0.09200
C1105       C  0.65733987  0.79859055  0.28583071    -0.25900
S1106       S  0.57870174  0.82992030  0.35946229    -0.03100
C1107       C  0.56901269  0.80127766  0.38077057    -0.16500
C1108       C  0.58280711  0.77614284  0.37460755    -0.14500
H1109       H  0.61888070  0.73741536  0.34871388     0.20900
H1110       H  0.62030149  0.83757463  0.31106181     0.16900
H1111       H  0.66151863  0.81862865  0.27491461     0.19400
H1112       H  0.57921157  0.75617571  0.38591024     0.12800
C1113       C  0.61415633  0.59505885  0.17315191     0.16600
C1114       C  0.63976288  0.60655479  0.16467762    -0.32400
C1115       C  0.64846641  0.63142166  0.17908771     0.21000
C1116       C  0.63213700  0.64466898  0.20046030     0.03200
C1117       C  0.60646779  0.63322639  0.20884796    -0.22100
C1118       C  0.59809336  0.60796061  0.19498030     0.12400
S1119       S  0.60068920  0.56422016  0.15949097    -0.05800
C1120       C  0.57348713  0.56830853  0.18409090    -0.09200
C1121       C  0.57475224  0.59263699  0.20144978    -0.25900
S1122       S  0.64680715  0.67417015  0.21597228    -0.03100
C1123       C  0.67554108  0.66818813  0.19391501    -0.16500
C1124       C  0.67342298  0.64482361  0.17522907    -0.14500
H1125       H  0.65266772  0.59617253  0.14815337     0.20900
H1126       H  0.59394437  0.64315338  0.22599409     0.16900
H1127       H  0.55975499  0.59837277  0.21839975     0.19400
H1128       H  0.68955070  0.63762742  0.16015385     0.12800
C1129       C  0.89858052  0.71822883  0.06657824     0.16600
C1130       C  0.87660200  0.73322849  0.07989127    -0.32400
C1131       C  0.86302206  0.72028518  0.10381135     0.21000
C1132       C  0.87074110  0.69343124  0.11384253     0.03200
C1133       C  0.89287167  0.67846960  0.10064342    -0.22100
C1134       C  0.90667756  0.69156354  0.07690097     0.12400
S1135       S  0.91747059  0.73032802  0.03720662    -0.05800
C1136       C  0.93671666  0.69934623  0.03907028    -0.09200
C1137       C  0.92877907  0.68061939  0.06122678    -0.25900
S1138       S  0.85119782  0.68121579  0.14273133    -0.03100
C1139       C  0.83280330  0.71285609  0.14165649    -0.16500
C1140       C  0.84133706  0.73160291  0.11976021    -0.14500
H1141       H  0.87037794  0.75410574  0.07196213     0.20900
H1142       H  0.89905590  0.65757137  0.10854012     0.16900
H1143       H  0.93852651  0.66013534  0.06541799     0.19400
H1144       H  0.83200668  0.75228941  0.11555739     0.12800
C1145       C  0.71121546  0.89514581  0.08310797     0.16600
C1146       C  0.70559922  0.88260563  0.11077061    -0.32400
C1147       C  0.71771148  0.85594671  0.11689456     0.21000
C1148       C  0.73438538  0.84213872  0.09625751     0.03200
C1149       C  0.73966308  0.85450015  0.06835763    -0.22100
C1150       C  0.72790075  0.88140500  0.06241359     0.12400
S1151       S  0.70002128  0.92819719  0.07236737    -0.05800
C1152       C  0.71837914  0.92377456  0.03974455    -0.09200
C1153       C  0.73196004  0.89768016  0.03739076    -0.25900
S1154       S  0.74906119  0.81110750  0.10907880    -0.03100
C1155       C  0.73281322  0.81693276  0.14275953    -0.16500
C1156       C  0.71649384  0.84148395  0.14342600    -0.14500
H1157       H  0.69306349  0.89357439  0.12720388     0.20900
H1158       H  0.75313004  0.84405578  0.05240275     0.16900
H1159       H  0.74477618  0.89135300  0.01871666     0.19400
H1160       H  0.70572147  0.84932471  0.16294565     0.12800
C1161       C  0.60573226  0.24176455  0.34448081     0.16600
C1162       C  0.62436975  0.25679004  0.32639179    -0.32400
C1163       C  0.64114895  0.24108031  0.30669180     0.21000
C1164       C  0.63913683  0.21174417  0.30486013     0.03200
C1165       C  0.62039037  0.19675082  0.32277499    -0.22100
C1166       C  0.60390820  0.21240079  0.34273293     0.12400
S1167       S  0.58422212  0.25677678  0.37044544    -0.05800
C1168       C  0.57290425  0.22312789  0.37926379    -0.09200
C1169       C  0.58507955  0.20157343  0.36264326    -0.25900
S1170       S  0.66183635  0.19643313  0.28039503    -0.03100
C1171       C  0.67456680  0.22982351  0.27264208    -0.16500
C1172       C  0.66141810  0.25162213  0.28818366    -0.14500
H1173       H  0.62604081  0.27968116  0.32796066     0.20900
H1174       H  0.61906387  0.17381199  0.32157157     0.16900
H1175       H  0.58046591  0.17921040  0.36514931     0.19400
H1176       H  0.66685797  0.27386748  0.28659872     0.12800
C1177       C  0.79201629  0.36643355  0.30134459     0.16600
C1178       C  0.80298568  0.38950220  0.31754537    -0.32400
C1179       C  0.79109690  0.39587835  0.34537798     0.21000
C1180       C  0.76986945  0.37941795  0.35694275     0.03200
C1181       C  0.75948847  0.35590086  0.34114330    -0.22100
C1182       C  0.77076460  0.35005841  0.31297034     0.12400
S1183       S  0.80111797  0.35730122  0.26572208    -0.05800
C1184       C  0.77580827  0.33130828  0.26634393    -0.09200
C1185       C  0.76160469  0.32973495  0.29316938    -0.25900
S1186       S  0.75679384  0.39171362  0.38992980    -0.03100
C1187       C  0.77977505  0.41972674  0.38807723    -0.16500
C1188       C  0.79701194  0.41895503  0.36325536    -0.14500
H1189       H  0.81918576  0.40268339  0.30825693     0.20900
H1190       H  0.74247467  0.34344142  0.34986308     0.16900
H1191       H  0.74456655  0.31532295  0.29748944     0.19400
H1192       H  0.81238914  0.43495258  0.35811998     0.12800
C1193       C  0.65566720  0.36961354  0.16604948     0.16600
C1194       C  0.64016983  0.39326767  0.15624243    -0.32400
C1195       C  0.61519984  0.39937826  0.17111369     0.21000
C1196       C  0.60594996  0.38255194  0.19440929     0.03200
C1197       C  0.62113567  0.35872129  0.20378682    -0.22100
C1198       C  0.64612729  0.35278386  0.18917361     0.12400
S1199       S  0.68769597  0.35979609  0.15293936    -0.05800
C1200       C  0.68803536  0.33292929  0.17910943    -0.09200
C1201       C  0.66439741  0.33154112  0.19647405    -0.25900
S1202       S  0.57588572  0.39395030  0.21052400    -0.03100
C1203       C  0.57561351  0.42162222  0.18548115    -0.16500
C1204       C  0.59771672  0.42195381  0.16581208    -0.14500
H1205       H  0.64757962  0.40670313  0.13841335     0.20900
H1206       H  0.61412961  0.34575942  0.22219169     0.16900
H1207       H  0.66131870  0.31659781  0.21452235     0.19400
H1208       H  0.60084968  0.43798134  0.14884705     0.12800
C1209       C  0.72500689  0.09763752  0.08910943     0.16600
C1210       C  0.72047079  0.10946227  0.11744988    -0.32400
C1211       C  0.73267979  0.13586143  0.12384606     0.21000
C1212       C  0.74828545  0.15009500  0.10275262     0.03200
C1213       C  0.75274018  0.13830449  0.07437380    -0.22100
C1214       C  0.74099018  0.11163569  0.06818439     0.12400
S1215       S  0.71278032  0.06543689  0.07740916    -0.05800
C1216       C  0.72998192  0.07034906  0.04408545    -0.09200
C1217       C  0.74396309  0.09610872  0.04237417    -0.25900
S1218       S  0.76226036  0.18130177  0.11523485    -0.03100
C1219       C  0.74747221  0.17490681  0.14953387    -0.16500
C1220       C  0.73205025  0.15001634  0.15069048    -0.14500
H1221       H  0.70843375  0.09828362  0.13401173     0.20900
H1222       H  0.76535038  0.14915619  0.05806753     0.16900
H1223       H  0.75602921  0.10290594  0.02338520     0.19400
H1224       H  0.72177870  0.14215004  0.17043195     0.12800
C1225       C  0.91642143  0.25916828  0.07311508     0.16600
C1226       C  0.89763248  0.24556584  0.09209580    -0.32400
C1227       C  0.88016035  0.26272117  0.10957547     0.21000
C1228       C  0.88164598  0.29213349  0.10857204     0.03200
C1229       C  0.90050330  0.30576137  0.08966460    -0.22100
C1230       C  0.91765769  0.28860207  0.07182666     0.12400
S1231       S  0.93869662  0.24209639  0.04945273    -0.05800
C1232       C  0.94939171  0.27493807  0.03737540    -0.09200
C1233       C  0.93661646  0.29780737  0.05127227    -0.25900
S1234       S  0.85830206  0.30912980  0.13106579    -0.03100
C1235       C  0.84609717  0.27627498  0.14167708    -0.16500
C1236       C  0.85976445  0.25347958  0.12849960    -0.14500
H1237       H  0.89637469  0.22260734  0.09284961     0.20900
H1238       H  0.90143387  0.32872707  0.08854598     0.16900
H1239       H  0.94084525  0.31988819  0.04637306     0.19400
H1240       H  0.85472421  0.23135793  0.13215867     0.12800
C1241       C  0.23923847  0.34540823  0.33354562     0.16600
C1242       C  0.24597739  0.36148754  0.35886822    -0.32400
C1243       C  0.22428334  0.37679918  0.37236701     0.21000
C1244       C  0.19704355  0.37595373  0.36137854     0.03200
C1245       C  0.19022049  0.35941845  0.33647948    -0.22100
C1246       C  0.21195527  0.34443085  0.32278370     0.12400
S1247       S  0.26264706  0.32618937  0.31311706    -0.05800
C1248       C  0.23526770  0.31675895  0.28996698    -0.09200
C1249       C  0.20955011  0.32800302  0.29783822    -0.25900
S1250       S  0.17426741  0.39818758  0.37897699    -0.03100
C1251       C  0.20179276  0.40880980  0.40115640    -0.16500
C1252       C  0.22703991  0.39539178  0.39560678    -0.14500
H1253       H  0.26728856  0.36263423  0.36719024     0.20900
H1254       H  0.16906698  0.35895100  0.32760357     0.16900
H1255       H  0.19003673  0.32417717  0.28604728     0.19400
H1256       H  0.24664853  0.40050728  0.40660594     0.12800
C1257       C  0.36426929  0.21868458  0.30279857     0.16600
C1258       C  0.37338842  0.20744758  0.33015922    -0.32400
C1259       C  0.39626762  0.22035135  0.34421749     0.21000
C1260       C  0.40960226  0.24342138  0.33154598     0.03200
C1261       C  0.40072180  0.25447454  0.30391864    -0.22100
C1262       C  0.37777742  0.24151344  0.28984381     0.12400
S1263       S  0.33554839  0.20724972  0.28359375    -0.05800
C1264       C  0.34193696  0.23320271  0.25767360    -0.09200
C1265       C  0.36517616  0.24977450  0.26356032    -0.25900
S1266       S  0.43724482  0.25572663  0.35198184    -0.03100
C1267       C  0.43100601  0.22913899  0.37754102    -0.16500
C1268       C  0.40839574  0.21211274  0.37070153    -0.14500
H1269       H  0.36287855  0.18960431  0.34023223     0.20900
H1270       H  0.41110465  0.27245895  0.29395587     0.16900
H1271       H  0.37148963  0.26780668  0.25025991     0.19400
H1272       H  0.40196135  0.19399425  0.38377962     0.12800
C1273       C  0.39700693  0.38655997  0.20811719     0.16600
C1274       C  0.37730791  0.36859043  0.22080139    -0.32400
C1275       C  0.35868374  0.35487908  0.20141004     0.21000
C1276       C  0.35977293  0.35848592  0.17070479     0.03200
C1277       C  0.37913408  0.37692481  0.15803515    -0.22100
C1278       C  0.39762469  0.39085231  0.17746679     0.12400
S1279       S  0.42147946  0.40501786  0.22788537    -0.05800
C1280       C  0.43211154  0.41908661  0.19452419    -0.09200
C1281       C  0.41779827  0.40967266  0.16951774    -0.25900
S1282       S  0.33740507  0.33737167  0.15092186    -0.03100
C1283       C  0.32627196  0.32404117  0.18449339    -0.16500
C1284       C  0.33906969  0.33557761  0.20946232    -0.14500
H1285       H  0.37673992  0.36516379  0.24469671     0.20900
H1286       H  0.38008272  0.37989672  0.13409630     0.16900
H1287       H  0.42167187  0.41666856  0.14691737     0.19400
H1288       H  0.33572179  0.32857604  0.23218072     0.12800
C1289       C  0.15260530  0.27477085  0.11515459     0.16600
C1290       C  0.13491927  0.28989850  0.09563314    -0.32400
C1291       C  0.12175875  0.27455484  0.07268698     0.21000
C1292       C  0.12561023  0.24544237  0.06961072     0.03200
C1293       C  0.14374869  0.23050557  0.08863824    -0.22100
C1294       C  0.15722899  0.24587491  0.11121114     0.12400
S1295       S  0.16941056  0.28886683  0.14552642    -0.05800
C1296       C  0.18327223  0.25555381  0.15223114    -0.09200
C1297       C  0.17513707  0.23486637  0.13211626    -0.25900
S1298       S  0.10607104  0.23023528  0.04199455    -0.03100
C1299       C  0.09329709  0.26362965  0.03381821    -0.16500
C1300       C  0.10346951  0.28520791  0.05182449    -0.14500
H1301       H  0.13125984  0.31247874  0.09844760     0.20900
H1302       H  0.14690381  0.20780332  0.08624438     0.16900
H1303       H  0.18122392  0.21266771  0.13340223     0.19400
H1304       H  0.09703770  0.30728555  0.05027497     0.12800
C1305       C  0.31013597  0.13070234  0.10483163     0.16600
C1306       C  0.32612448  0.11485872  0.08477139    -0.32400
C1307       C  0.31176330  0.09767825  0.06434828     0.21000
C1308       C  0.28278515  0.09603173  0.06412437     0.03200
C1309       C  0.26680448  0.11182737  0.08423812    -0.22100
C1310       C  0.28116260  0.12924884  0.10444844     0.12400
S1311       S  0.32356390  0.15382116  0.13034391    -0.05800
C1312       C  0.28975294  0.16195954  0.14023693    -0.09200
C1313       C  0.26931172  0.14707151  0.12487739    -0.25900
S1314       S  0.26933375  0.07329211  0.03822156    -0.03100
C1315       C  0.30308876  0.06617669  0.02758035    -0.16500
C1316       C  0.32358300  0.08062387  0.04320439    -0.14500
H1317       H  0.34873204  0.11607824  0.08488738     0.20900
H1318       H  0.24418858  0.11073250  0.08401388     0.16900
H1319       H  0.24699919  0.14987623  0.12775417     0.19400
H1320       H  0.34585004  0.07802675  0.03986263     0.12800
C1321       C  0.12914536  0.84206232  0.25046134     0.16600
C1322       C  0.10406080  0.85547290  0.25827096    -0.32400
C1323       C  0.09883743  0.88258800  0.24650172     0.21000
C1324       C  0.11785499  0.89592586  0.22809786     0.03200
C1325       C  0.14302041  0.88262104  0.22052196    -0.22100
C1326       C  0.14809033  0.85538821  0.23198435     0.12400
S1327       S  0.13869011  0.80854103  0.26098424    -0.05800
C1328       C  0.16836913  0.81245606  0.23996764    -0.09200
C1329       C  0.17072002  0.83855471  0.22599042    -0.25900
S1330       S  0.10740673  0.92849989  0.21549389    -0.03100
C1331       C  0.07702866  0.92399070  0.23509827    -0.16500
C1332       C  0.07530147  0.89867046  0.25065594    -0.14500
H1333       H  0.08905086  0.84502319  0.27239676     0.20900
H1334       H  0.15775999  0.89282209  0.20588033     0.16900
H1335       H  0.18764831  0.84457761  0.21147968     0.19400
H1336       H  0.05767019  0.89237900  0.26404047     0.12800
C1337       C  0.85143067  0.87015437  0.20598287     0.16600
C1338       C  0.86422561  0.89624953  0.20035056    -0.32400
C1339       C  0.89151453  0.90004680  0.21123812     0.21000
C1340       C  0.90530309  0.87897880  0.22740372     0.03200
C1341       C  0.89272537  0.85262376  0.23251414    -0.22100
C1342       C  0.86556038  0.84865863  0.22125221     0.12400
S1343       S  0.81794240  0.86207518  0.19603885    -0.05800
C1344       C  0.82321801  0.82921224  0.21206381    -0.09200
C1345       C  0.84955326  0.82479441  0.22438210    -0.25900
S1346       S  0.93763538  0.88844050  0.24019364    -0.03100
C1347       C  0.93292921  0.92097377  0.22287831    -0.16500
C1348       C  0.90737370  0.92396906  0.20816751    -0.14500
H1349       H  0.85325921  0.91298912  0.18832509     0.20900
H1350       H  0.90350784  0.83607410  0.24500373     0.16900
H1351       H  0.85618369  0.80565465  0.23596832     0.19400
H1352       H  0.90062430  0.94282899  0.19615569     0.12800
C1353       C  0.86374840  0.13709679  0.25155504     0.16600
C1354       C  0.88004566  0.11570198  0.26503992    -0.32400
C1355       C  0.89825386  0.10026948  0.24670988     0.21000
C1356       C  0.89987802  0.10565058  0.21631058     0.03200
C1357       C  0.88408484  0.12738393  0.20302576    -0.22100
C1358       C  0.86625544  0.14305859  0.22137137     0.12400
S1359       S  0.83876285  0.15681869  0.26916148    -0.05800
C1360       C  0.83232203  0.17357846  0.23557845    -0.09200
C1361       C  0.84868568  0.16437711  0.21223463    -0.25900
S1362       S  0.92255154  0.08424779  0.19762392    -0.03100
C1363       C  0.93063205  0.06850313  0.23126661    -0.16500
C1364       C  0.91612065  0.07894904  0.25551600    -0.14500
H1365       H  0.87837898  0.11107695  0.28863223     0.20900
H1366       H  0.88546898  0.13174908  0.17935118     0.16900
H1367       H  0.84661445  0.17172736  0.18938818     0.19400
H1368       H  0.91884991  0.07158865  0.27827596     0.12800
C1369       C  0.10662438  0.10881032  0.25462061     0.16600
C1370       C  0.12027266  0.13422461  0.26147905    -0.32400
C1371       C  0.14544372  0.13975958  0.24692963     0.21000
C1372       C  0.15707076  0.12059605  0.22700931     0.03200
C1373       C  0.14354046  0.09496387  0.22037270    -0.22100
C1374       C  0.11791267  0.08976949  0.23434311     0.12400
S1375       S  0.07499375  0.09907043  0.26851760    -0.05800
C1376       C  0.07647144  0.06937372  0.24603313    -0.09200
C1377       C  0.10072684  0.06704154  0.22941999    -0.25900
S1378       S  0.18723982  0.13211836  0.21082587    -0.03100
C1379       C  0.18359135  0.16334547  0.23058294    -0.16500
C1380       C  0.16054646  0.16420495  0.24908088    -0.14500
H1381       H  0.11122762  0.14944681  0.27679949     0.20900
H1382       H  0.15214674  0.08014906  0.20435099     0.16900
H1383       H  0.10518073  0.04988523  0.21402755     0.19400
H1384       H  0.15466208  0.18219702  0.26279671     0.12800
loop_ 
_geom_bond_atom_site_label_1 
_geom_bond_atom_site_label_2 
_geom_bond_distance 
_geom_bond_site_symmetry_2 
_ccdc_geom_bond_type 
N1            C6   1.355       .  A
N1            C5   1.351   1_565  A
N1           H33   1.041       .  S
N2            C9   1.350   1_455  A
N2           C10   1.353       .  A
N3            C8   1.350       .  A
N3            C7   1.352   1_565  A
N3           H34   1.041       .  S
N4           C11   1.351   1_455  A
N4           C12   1.349       .  A
C5           C13   1.386       .  A
C5           C21   1.411       .  A
C6           C22   1.418       .  A
C6           C14   1.388       .  A
C7           C15   1.386       .  A
C7           C24   1.410       .  A
C8           C23   1.409       .  A
C8           C16   1.387       .  A
C9           C21   1.412       .  A
C9           C17   1.387       .  A
C10          C24   1.413       .  A
C10          C18   1.385       .  A
C11          C19   1.386       .  A
C11          C22   1.411       .  A
C12          C20   1.386       .  A
C12          C23   1.409       .  A
C13          C14   1.375   1_545  A
C13          H25   1.082       .  S
C14          H26   1.081       .  S
C15          C16   1.375   1_545  A
C15          H27   1.082       .  S
C16          H28   1.082       .  S
C17          C18   1.371   1_655  A
C17          H29   1.082       .  S
C18          H30   1.081       .  S
C19          C20   1.373   1_655  A
C19          H31   1.082       .  S
C20          H32   1.082       .  S
C21        C1363   1.472       .  S
C22        C1347   1.492       .  S
C23        C1331   1.475       .  S
C24        C1376   1.488       .  S
O35         Ni41   1.927       .  S
O35          C56   1.272       .  A
O36         Ni59   1.903       .  S
O36          C45   1.269       .  A
O37         Ni41   1.895       .  S
O37         Ni59   1.898       .  S
O37         Ni53   1.903       .  S
O37          H60   0.961       .  S
C38        C1283   1.458       .  S
C38          O55   1.276       .  A
C38          O47   1.274       .  A
O39         Ni58   1.921       .  S
O39          C45   1.270       .  A
O40         Ni58   1.922       .  S
O40          C42   1.269       .  A
Ni41         O44   1.932       .  S
Ni41         O46   1.906       .  S
C42        C1264   1.459       .  S
C42          O52   1.267       .  A
O43         Ni59   1.914       .  S
O43          C49   1.277       .  A
O44          C49   1.280       .  A
C45        C1312   1.463       .  S
O46          C48   1.265       .  A
O47         Ni58   1.913       .  S
C48        C1296   1.461       .  S
C48          O54   1.270       .  A
C49        C1379   1.473       .  S
H50          O51   0.973       .  S
O51         Ni59   1.914       .  S
O51         Ni53   1.890       .  S
O51         Ni58   1.901       .  S
O52         Ni53   1.911       .  S
Ni53         O57   1.899       .  S
Ni53         O55   1.920       .  S
O54         Ni59   1.923       .  S
C56        C1248   1.465       .  S
C56          O57   1.267       .  A
O61         Ni67   1.930       .  S
O61          C82   1.271       .  A
O62         Ni85   1.912       .  S
O62          C71   1.269       .  A
O63         Ni67   1.908       .  S
O63         Ni85   1.907       .  S
O63         Ni79   1.906       .  S
O63          H86   0.967       .  S
C64        C1200   1.463       .  S
C64          O81   1.274       .  A
C64          O73   1.276       .  A
O65         Ni84   1.930       .  S
O65          C71   1.271       .  A
O66         Ni84   1.917       .  S
O66          C68   1.271       .  A
Ni67         O70   1.921       .  S
Ni67         O72   1.919       .  S
C68        C1184   1.483       .  S
C68          O78   1.274       .  A
O69         Ni85   1.910       .  S
O69          C75   1.275       .  A
O70          C75   1.275       .  A
C71        C1235   1.475       .  S
O72          C74   1.271       .  A
O73         Ni84   1.924       .  S
C74        C1219   1.481       .  S
C74          O80   1.272       .  A
C75        C1360   1.460       .  S
H76          O77   0.969       .  S
O77         Ni85   1.907       .  S
O77         Ni79   1.907       .  S
O77         Ni84   1.910       .  S
O78         Ni79   1.933       .  S
Ni79         O83   1.921       .  S
Ni79         O81   1.901       .  S
O80         Ni85   1.926       .  S
C82        C1171   1.481       .  S
C82          O83   1.271       .  A
O87         Ni93   1.930       .  S
O87         C108   1.271       .  A
O88        Ni111   1.890       .  S
O88          C97   1.263       .  A
O89         Ni93   1.916       .  S
O89        Ni111   1.897       .  S
O89        Ni105   1.904       .  S
O89         H112   0.962       .  S
C90        C1344   1.462       .  S
C90         O107   1.272       .  A
C90          O99   1.273       .  A
O91        Ni110   1.935       .  S
O91          C97   1.272       .  A
O92        Ni110   1.904       .  S
O92          C94   1.269       .  A
Ni93         O96   1.924       .  S
Ni93         O98   1.922       .  S
C94        C1155   1.479       .  S
C94         O104   1.276       .  A
O95        Ni111   1.910       .  S
O95         C101   1.274       .  A
O96         C101   1.277       .  A
C97        C1104   1.467       .  S
O98         C100   1.270       .  A
O99        Ni110   1.927       .  S
C100       C1088   1.485       .  S
C100        O106   1.271       .  A
C101       C1123   1.468       .  S
H102        O103   0.963       .  S
O103       Ni111   1.911       .  S
O103       Ni105   1.912       .  S
O103       Ni110   1.921       .  S
O104       Ni105   1.945       .  S
Ni105       O109   1.907       .  S
Ni105       O107   1.910       .  S
O106       Ni111   1.928       .  S
C108       C1139   1.471       .  S
C108        O109   1.268       .  A
O113       Ni119   1.915       .  S
O113        C134   1.269       .  A
O114       Ni137   1.886       .  S
O114        C123   1.261       .  A
O115       Ni119   1.897       .  S
O115       Ni137   1.891       .  S
O115       Ni131   1.909       .  S
O115        H138   0.967       .  S
C116       C1328   1.466       .  S
C116        O133   1.276       .  A
C116        O125   1.278       .  A
O117       Ni136   1.931       .  S
O117        C123   1.271       .  A
O118       Ni136   1.902       .  S
O118        C120   1.266       .  A
Ni119       O122   1.919       .  S
Ni119       O124   1.913       .  S
C120       C1075   1.473       .  S
C120        O130   1.271       .  A
O121       Ni137   1.905       .  S
O121        C127   1.273       .  A
O122        C127   1.275       .  A
C123       C1024   1.453       .  S
O124        C126   1.269       .  A
O125       Ni136   1.927       .  S
C126       C1011   1.478       .  S
C126        O132   1.270       .  A
C127       C1040   1.458       .  S
H128        O129   0.966       .  S
O129       Ni137   1.899       .  S
O129       Ni131   1.898       .  S
O129       Ni136   1.900       .  S
O130       Ni131   1.931       .  S
Ni131       O135   1.904       .  S
Ni131       O133   1.905       .  S
O132       Ni137   1.928       .  S
C134       C1056   1.460       .  S
C134        O135   1.266       .  A
N139        C144   1.350       .  A
N139        C143   1.351       .  A
N139        H171   1.038       .  S
N140        C147   1.348       .  A
N140        C148   1.347   1_565  A
N141        C146   1.353       .  A
N141        C145   1.349       .  A
N141        H172   1.039       .  S
N142        C149   1.347       .  A
N142        C150   1.347   1_565  A
C143        C151   1.386       .  A
C143        C159   1.409       .  A
C144        C160   1.412   1_556  A
C144        C152   1.389       .  A
C145        C153   1.387       .  A
C145        C162   1.410       .  A
C146        C161   1.410   1_556  A
C146        C154   1.387       .  A
C147        C159   1.404       .  A
C147        C155   1.385       .  A
C148        C162   1.405       .  A
C148        C156   1.387   1_545  A
C149        C157   1.387       .  A
C149        C160   1.406       .  A
C150        C158   1.386       .  A
C150        C161   1.406       .  A
C151        C152   1.371       .  A
C151        H163   1.082       .  S
C152        H164   1.082       .  S
C153        C154   1.374       .  A
C153        H165   1.082       .  S
C154        H166   1.082       .  S
C155        C156   1.371       .  A
C155        H167   1.082       .  S
C156        H168   1.082   1_565  S
C157        C158   1.369   1_565  A
C157        H169   1.082       .  S
C158        H170   1.082       .  S
C159        C992   1.468       .  S
C160       C1059   1.466       .  S
C161       C1315   1.470       .  S
C162        C976   1.465       .  S
N173        C178   1.351       .  A
N173        C177   1.355       .  A
N173        H205   1.038       .  S
N174        C181   1.352   1_455  A
N174        C182   1.350       .  A
N175        C180   1.355       .  A
N175        C179   1.353       .  A
N175        H206   1.039       .  S
N176        C183   1.351   1_455  A
N176        C184   1.353       .  A
C177        C185   1.386       .  A
C177        C193   1.413   1_556  A
C178        C194   1.414       .  A
C178        C186   1.388       .  A
C179        C187   1.389       .  A
C179        C196   1.416   1_556  A
C180        C195   1.415       .  A
C180        C188   1.386       .  A
C181        C193   1.409       .  A
C181        C189   1.384   1_655  A
C182        C196   1.414       .  A
C182        C190   1.389       .  A
C183        C191   1.386   1_655  A
C183        C194   1.411       .  A
C184        C192   1.387       .  A
C184        C195   1.415       .  A
C185        C186   1.374       .  A
C185        H197   1.082       .  S
C186        H198   1.082       .  S
C187        C188   1.373       .  A
C187        H199   1.081       .  S
C188        H200   1.082       .  S
C189        C190   1.370       .  A
C189        H201   1.082   1_455  S
C190        H202   1.081       .  S
C191        C192   1.373       .  A
C191        H203   1.082   1_455  S
C192        H204   1.082       .  S
C193       C1232   1.480       .  S
C194        C944   1.473       .  S
C195        C960   1.488       .  S
C196       C1299   1.475       .  S
N207        C212   1.355       .  A
N207        C211   1.356       .  A
N207        H239   1.043       .  S
N208        C215   1.352   1_565  A
N208        C216   1.352       .  A
N209        C214   1.353       .  A
N209        C213   1.353       .  A
N209        H240   1.041       .  S
N210        C217   1.355   1_565  A
N210        C218   1.355       .  A
C211        C219   1.386       .  A
C211        C227   1.418   1_556  A
C212        C228   1.418       .  A
C212        C220   1.387       .  A
C213        C221   1.387       .  A
C213        C230   1.416   1_556  A
C214        C229   1.415       .  A
C214        C222   1.387       .  A
C215        C227   1.414       .  A
C215        C223   1.386       .  A
C216        C230   1.414       .  A
C216        C224   1.386       .  A
C217        C225   1.387       .  A
C217        C228   1.420       .  A
C218        C226   1.385       .  A
C218        C229   1.418       .  A
C219        C220   1.378       .  A
C219        H231   1.082       .  S
C220        H232   1.082       .  S
C221        C222   1.380       .  A
C221        H233   1.082       .  S
C222        H234   1.082       .  S
C223        C224   1.375   1_545  A
C223        H235   1.082       .  S
C224        H236   1.082       .  S
C225        C226   1.376   1_545  A
C225        H237   1.082       .  S
C226        H238   1.082       .  S
C227       C1216   1.498       .  S
C228        C931   1.502       .  S
C229        C915   1.495       .  S
C230       C1152   1.490       .  S
N241        C246   1.352       .  A
N241        C245   1.351       .  A
N241        H273   1.038       .  S
N242        C249   1.352       .  A
N242        C250   1.352   1_455  A
N243        C248   1.352       .  A
N243        C247   1.352       .  A
N243        H274   1.038       .  S
N244        C251   1.352       .  A
N244        C252   1.352   1_455  A
C245        C253   1.385       .  A
C245        C261   1.410   1_556  A
C246        C262   1.415       .  A
C246        C254   1.389       .  A
C247        C255   1.387       .  A
C247        C264   1.413   1_556  A
C248        C263   1.414       .  A
C248        C256   1.387       .  A
C249        C261   1.412       .  A
C249        C257   1.386       .  A
C250        C264   1.412       .  A
C250        C258   1.386       .  A
C251        C259   1.389       .  A
C251        C262   1.418       .  A
C252        C260   1.384   1_655  A
C252        C263   1.412       .  A
C253        C254   1.376       .  A
C253        H265   1.083   1_556  S
C254        H266   1.082       .  S
C255        C256   1.375       .  A
C255        H267   1.082       .  S
C256        H268   1.081       .  S
C257        C258   1.374   1_455  A
C257        H269   1.082       .  S
C258        H270   1.082       .  S
C259        C260   1.372       .  A
C259        H271   1.081       .  S
C260        H272   1.082   1_455  S
C261       C1072   1.479       .  S
C262        C880   1.484       .  S
C263        C899   1.479       .  S
C264       C1136   1.479       .  S
O275       Ni281   1.924       .  S
O275        C296   1.270       .  A
O276       Ni299   1.885       .  S
O276        C285   1.262       .  A
O277       Ni281   1.902       .  S
O277       Ni299   1.896       .  S
O277       Ni293   1.909       .  S
O277        H300   0.969       .  S
C278        C883   1.467       .  S
C278        O295   1.278       .  A
C278        O287   1.276       .  A
O279       Ni298   1.915       .  S
O279        C285   1.265       .  A
O280       Ni298   1.906       .  S
O280        C282   1.265       .  A
Ni281       O284   1.924       .  S
Ni281       O286   1.915       .  S
C282        C867   1.478       .  S
C282        O292   1.272       .  A
O283       Ni299   1.897       .  S
O283        C289   1.270       .  A
O284        C289   1.278       .  A
C285        C816   1.449       .  S
O286        C288   1.269       .  A
O287       Ni298   1.914       .  S
C288        C851   1.486       .  S
C288        O294   1.273       .  A
C289        C832   1.457       .  S
H290        O291   0.966       .  S
O291       Ni299   1.906       .  S
O291       Ni293   1.900       .  S
O291       Ni298   1.905       .  S
O292       Ni293   1.939       .  S
Ni293       O297   1.895       .  S
Ni293       O295   1.920       .  S
O294       Ni299   1.943       .  S
C296        C995   1.461       .  S
C296        O297   1.266       .  A
N301        C306   1.355       .  A
N301        C305   1.359   1_565  A
N301        H333   1.040       .  S
N302        C309   1.357   1_455  A
N302        C310   1.354       .  A
N303        C308   1.359       .  A
N303        C307   1.353   1_565  A
N303        H334   1.035       .  S
N304        C311   1.351   1_455  A
N304        C312   1.355       .  A
C305        C313   1.386       .  A
C305        C321   1.422       .  A
C306        C322   1.421       .  A
C306        C314   1.388       .  A
C307        C315   1.388       .  A
C307        C324   1.421       .  A
C308        C323   1.424       .  A
C308        C316   1.387       .  A
C309        C321   1.420       .  A
C309        C317   1.385       .  A
C310        C324   1.421       .  A
C310        C318   1.387       .  A
C311        C319   1.386       .  A
C311        C322   1.416       .  A
C312        C320   1.387       .  A
C312        C323   1.420       .  A
C313        C314   1.374   1_545  A
C313        H325   1.082       .  S
C314        H326   1.082       .  S
C315        C316   1.373   1_545  A
C315        H327   1.081       .  S
C316        H328   1.081       .  S
C317        C318   1.376   1_655  A
C317        H329   1.082       .  S
C318        H330   1.082       .  S
C319        C320   1.372   1_655  A
C319        H331   1.082       .  S
C320        H332   1.080       .  S
C321        C784   1.506       .  S
C322        C768   1.487       .  S
C323        C864   1.498       .  S
C324        C800   1.483       .  S
O335       Ni341   1.940       .  S
O335        C356   1.278       .  A
O336       Ni359   1.890       .  S
O336        C345   1.264       .  A
O337       Ni341   1.902       .  S
O337       Ni359   1.890       .  S
O337       Ni353   1.906       .  S
O337        H360   0.968       .  S
C338        C803   1.470       .  S
C338        O355   1.277       .  A
C338        O347   1.275       .  A
O339       Ni358   1.928       .  S
O339        C345   1.271       .  A
O340       Ni358   1.916       .  S
O340        C342   1.269       .  A
Ni341       O344   1.951       .  S
Ni341       O346   1.917       .  S
C342        C963   1.467       .  S
C342        O352   1.271       .  A
O343       Ni359   1.903       .  S
O343        C349   1.271       .  A
O344        C349   1.281       .  A
C345        C739   1.460       .  S
O346        C348   1.269       .  A
O347       Ni358   1.920       .  S
C348        C720   1.477       .  S
C348        O354   1.274       .  A
C349        C755   1.469       .  S
H350        O351   0.964       .  S
O351       Ni359   1.906       .  S
O351       Ni353   1.890       .  S
O351       Ni358   1.903       .  S
O352       Ni353   1.930       .  S
Ni353       O357   1.882       .  S
Ni353       O355   1.927       .  S
O354       Ni359   1.943       .  S
C356        C979   1.462       .  S
C356        O357   1.266       .  A
O361       Ni367   1.940       .  S
O361        C382   1.275       .  A
O362       Ni385   1.887       .  S
O362        C371   1.264       .  A
O363       Ni367   1.923       .  S
O363       Ni385   1.904       .  S
O363       Ni379   1.919       .  S
O363        H386   0.967       .  S
C364        C787   1.489       .  S
C364        O381   1.274       .  A
C364        O373   1.279       .  A
O365       Ni384   1.945       .  S
O365        C371   1.275       .  A
O366       Ni384   1.916       .  S
O366        C368   1.271       .  A
Ni367       O370   1.936       .  S
Ni367       O372   1.915       .  S
C368        C928   1.487       .  S
C368        O378   1.274       .  A
O369       Ni385   1.921       .  S
O369        C375   1.274       .  A
O370        C375   1.277       .  A
C371        C691   1.469       .  S
O372        C374   1.271       .  A
O373       Ni384   1.943       .  S
C374        C672   1.484       .  S
C374        O380   1.274       .  A
C375        C704   1.486       .  S
H376        O377   0.967       .  S
O377       Ni385   1.916       .  S
O377       Ni379   1.902       .  S
O377       Ni384   1.920       .  S
O378       Ni379   1.939       .  S
Ni379       O383   1.884       .  S
Ni379       O381   1.921       .  S
O380       Ni385   1.936       .  S
C382        C947   1.465       .  S
C382        O383   1.262       .  A
O387       Ni393   1.944       .  S
O387        C408   1.275       .  A
O388       Ni411   1.892       .  S
O388        C397   1.263       .  A
O389       Ni393   1.924       .  S
O389       Ni411   1.907       .  S
O389       Ni405   1.906       .  S
O389        H412   0.965       .  S
C390        C656   1.472       .  S
C390        O407   1.270       .  A
C390        O399   1.277       .  A
O391       Ni410   1.942       .  S
O391        C397   1.274       .  A
O392       Ni410   1.916       .  S
O392        C394   1.272       .  A
Ni393       O396   1.935       .  S
Ni393       O398   1.926       .  S
C394        C640   1.494       .  S
C394        O404   1.279       .  A
O395       Ni411   1.906       .  S
O395        C401   1.271       .  A
O396        C401   1.278       .  A
C397        C896   1.472       .  S
O398        C400   1.272       .  A
O399       Ni410   1.933       .  S
C400        C912   1.490       .  S
C400        O406   1.272       .  A
C401        C771   1.473       .  S
H402        O403   0.969       .  S
O403       Ni411   1.910       .  S
O403       Ni405   1.909       .  S
O403       Ni410   1.919       .  S
O404       Ni405   1.953       .  S
Ni405       O409   1.900       .  S
Ni405       O407   1.903       .  S
O406       Ni411   1.936       .  S
C408        C627   1.478       .  S
C408        O409   1.267       .  A
N413        C418   1.356       .  A
N413        C417   1.359       .  A
N413        H445   1.041       .  S
N414        C421   1.356       .  A
N414        C422   1.354       .  A
N415        C420   1.355       .  A
N415        C419   1.349       .  A
N415        H446   1.041       .  S
N416        C423   1.349       .  A
N416        C424   1.355       .  A
C417        C425   1.387       .  A
C417        C433   1.423       .  A
C418        C434   1.422       .  A
C418        C426   1.386       .  A
C419        C427   1.388       .  A
C419        C436   1.413       .  A
C420        C435   1.413       .  A
C420        C428   1.386       .  A
C421        C433   1.421       .  A
C421        C429   1.388       .  A
C422        C436   1.417       .  A
C422        C430   1.385       .  A
C423        C431   1.389       .  A
C423        C434   1.416       .  A
C424        C432   1.383       .  A
C424        C435   1.412       .  A
C425        C426   1.376       .  A
C425        H437   1.080       .  S
C426        H438   1.081       .  S
C427        C428   1.376       .  A
C427        H439   1.082       .  S
C428        H440   1.082       .  S
C429        C430   1.375       .  A
C429        H441   1.080       .  S
C430        H442   1.082       .  S
C431        C432   1.374       .  A
C431        H443   1.082       .  S
C432        H444   1.082       .  S
C433        C848   1.502       .  S
C434        C752   1.494       .  S
C435        C707   1.497       .  S
C436        C659   1.485       .  S
N447        C452   1.351       .  A
N447        C451   1.350       .  A
N447        H479   1.036       .  S
N448        C455   1.351       .  A
N448        C456   1.351       .  A
N449        C454   1.351       .  A
N449        C453   1.351       .  A
N449        H480   1.040       .  S
N450        C457   1.348       .  A
N450        C458   1.347       .  A
C451        C459   1.389       .  A
C451        C467   1.413       .  A
C452        C468   1.411       .  A
C452        C460   1.386       .  A
C453        C461   1.387       .  A
C453        C470   1.411       .  A
C454        C469   1.411       .  A
C454        C462   1.387       .  A
C455        C467   1.414       .  A
C455        C463   1.387       .  A
C456        C470   1.412       .  A
C456        C464   1.385       .  A
C457        C465   1.386       .  A
C457        C468   1.406       .  A
C458        C466   1.386       .  A
C458        C469   1.406       .  A
C459        C460   1.371       .  A
C459        H471   1.081       .  S
C460        H472   1.082       .  S
C461        C462   1.374       .  A
C461        H473   1.082       .  S
C462        H474   1.082       .  S
C463        C464   1.371       .  A
C463        H475   1.081       .  S
C464        H476   1.082       .  S
C465        C466   1.371       .  A
C465        H477   1.082       .  S
C466        H478   1.082       .  S
C467       C1043   1.472       .  S
C468       C1280   1.469       .  S
C469       C1203   1.472       .  S
C470       C1120   1.481       .  S
N481        C486   1.359       .  A
N481        C485   1.360       .  A
N481        H513   1.040       .  S
N482        C489   1.358       .  A
N482        C490   1.357       .  A
N483        C488   1.357       .  A
N483        C487   1.355       .  A
N483        H514   1.040       .  S
N484        C491   1.354       .  A
N484        C492   1.356       .  A
C485        C493   1.386       .  A
C485        C501   1.424       .  A
C486        C502   1.424       .  A
C486        C494   1.387       .  A
C487        C495   1.388       .  A
C487        C504   1.420       .  A
C488        C503   1.417       .  A
C488        C496   1.385       .  A
C489        C501   1.422       .  A
C489        C497   1.385       .  A
C490        C504   1.423       .  A
C490        C498   1.387       .  A
C491        C499   1.387       .  A
C491        C502   1.418       .  A
C492        C500   1.385       .  A
C492        C503   1.417       .  A
C493        C494   1.377       .  A
C493        H505   1.082       .  S
C494        H506   1.082       .  S
C495        C496   1.376       .  A
C495        H507   1.082       .  S
C496        H508   1.082       .  S
C497        C498   1.375       .  A
C497        H509   1.082       .  S
C498        H510   1.082       .  S
C499        C500   1.374       .  A
C499        H511   1.082       .  S
C500        H512   1.082       .  S
C501        C643   1.507       .  S
C502       C1091   1.499       .  S
C503       C1187   1.497       .  S
C504        C675   1.498       .  S
N515        C520   1.351       .  A
N515        C519   1.355       .  A
N515        H547   1.038       .  S
N516        C523   1.352       .  A
N516        C524   1.349       .  A
N517        C522   1.353       .  A
N517        C521   1.347       .  A
N517        H548   1.041       .  S
N518        C525   1.348       .  A
N518        C526   1.354       .  A
C519        C527   1.385       .  A
C519        C535   1.415       .  A
C520        C536   1.417       .  A
C520        C528   1.389       .  A
C521        C529   1.389       .  A
C521        C538   1.409       .  A
C522        C537   1.409       .  A
C522        C530   1.385       .  A
C523        C535   1.411       .  A
C523        C531   1.385       .  A
C524        C538   1.411       .  A
C524        C532   1.387       .  A
C525        C533   1.387       .  A
C525        C536   1.413       .  A
C526        C534   1.385       .  A
C526        C537   1.414       .  A
C527        C528   1.378       .  A
C527        H539   1.082       .  S
C528        H540   1.082       .  S
C529        C530   1.374       .  A
C529        H541   1.083       .  S
C530        H542   1.082       .  S
C531        C532   1.372       .  A
C531        H543   1.082       .  S
C532        H544   1.081       .  S
C533        C534   1.374       .  A
C533        H545   1.082       .  S
C534        H546   1.082       .  S
C535        C624   1.485       .  S
C536       C1107   1.471       .  S
C537       C1008   1.493       .  S
C538        C835   1.470       .  S
N549        C554   1.349       .  A
N549        C553   1.352       .  A
N549        H581   1.034       .  S
N550        C557   1.347       .  A
N550        C558   1.348       .  A
N551        C556   1.348       .  A
N551        C555   1.349       .  A
N551        H582   1.037       .  S
N552        C559   1.349       .  A
N552        C560   1.349       .  A
C553        C561   1.388       .  A
C553        C569   1.415       .  A
C554        C570   1.411       .  A
C554        C562   1.386       .  A
C555        C563   1.387       .  A
C555        C572   1.407       .  A
C556        C571   1.406       .  A
C556        C564   1.388       .  A
C557        C569   1.412       .  A
C557        C565   1.389       .  A
C558        C572   1.406       .  A
C558        C566   1.385       .  A
C559        C567   1.387       .  A
C559        C570   1.408       .  A
C560        C568   1.386       .  A
C560        C571   1.406       .  A
C561        C562   1.376       .  A
C561        H573   1.082       .  S
C562        H574   1.082       .  S
C563        C564   1.372       .  A
C563        H575   1.082       .  S
C564        H576   1.083       .  S
C565        C566   1.370       .  A
C565        H577   1.081       .  S
C566        H578   1.082       .  S
C567        C568   1.370       .  A
C567        H579   1.082       .  S
C568        H580   1.082       .  S
C569       C1251   1.472       .  S
C570        C736   1.467       .  S
C571        C819   1.462       .  S
C572       C1027   1.467       .  S
N583        C588   1.354       .  A
N583        C587   1.356       .  A
N583        H615   1.038       .  S
N584        C591   1.356       .  A
N584        C592   1.353       .  A
N585        C590   1.357       .  A
N585        C589   1.350       .  A
N585        H616   1.038       .  S
N586        C593   1.348       .  A
N586        C594   1.352       .  A
C587        C595   1.388       .  A
C587        C603   1.421       .  A
C588        C604   1.418       .  A
C588        C596   1.386       .  A
C589        C597   1.389       .  A
C589        C606   1.417       .  A
C590        C605   1.415       .  A
C590        C598   1.385       .  A
C591        C603   1.419       .  A
C591        C599   1.386       .  A
C592        C606   1.417       .  A
C592        C600   1.387       .  A
C593        C601   1.388       .  A
C593        C604   1.411       .  A
C594        C602   1.384       .  A
C594        C605   1.409       .  A
C595        C596   1.377       .  A
C595        H607   1.081       .  S
C596        H608   1.082       .  S
C597        C598   1.376       .  A
C597        H609   1.082       .  S
C598        H610   1.082       .  S
C599        C600   1.371       .  A
C599        H611   1.082       .  S
C600        H612   1.082       .  S
C601        C602   1.371       .  A
C601        H613   1.082       .  S
C602        H614   1.082       .  S
C603        C723   1.492       .  S
C604       C1267   1.480       .  S
C605       C1168   1.488       .  S
C606        C688   1.475       .  S
C617        C622   1.387       .  A
C617        C618   1.406       .  A
C617        S623   1.713       .  A
C618        C619   1.406       .  A
C618        H629   1.083       .  S
C619        C628   1.376       .  A
C619        C620   1.387       .  A
C620        C621   1.402       .  A
C620        S626   1.707       .  A
C621        C622   1.402       .  A
C621        H630   1.083       .  S
C622        C625   1.372       .  A
S623        C624   1.723       .  A
C624        C625   1.386       .  A
C625        H631   1.083       .  S
S626        C627   1.724       .  A
C627        C628   1.390       .  A
C628        H632   1.083       .  S
C633        C638   1.386       .  A
C633        C634   1.410       .  A
C633        S639   1.714       .  A
C634        C635   1.409       .  A
C634        H645   1.083       .  S
C635        C644   1.383       .  A
C635        C636   1.386       .  A
C636        C637   1.410       .  A
C636        S642   1.715       .  A
C637        C638   1.409       .  A
C637        H646   1.083       .  S
C638        C641   1.383       .  A
S639        C640   1.730       .  A
C640        C641   1.394       .  A
C641        H647   1.083       .  S
S642        C643   1.730       .  A
C643        C644   1.394       .  A
C644        H648   1.083       .  S
C649        C654   1.387       .  A
C649        C650   1.402       .  A
C649        S655   1.706       .  A
C650        C651   1.402       .  A
C650        H661   1.083       .  S
C651        C660   1.372       .  A
C651        C652   1.387       .  A
C652        C653   1.401       .  A
C652        S658   1.704       .  A
C653        C654   1.401       .  A
C653        H662   1.083       .  S
C654        C657   1.370       .  A
S655        C656   1.725       .  A
C656        C657   1.386       .  A
C657        H663   1.083       .  S
S658        C659   1.725       .  A
C659        C660   1.386       .  A
C660        H664   1.083       .  S
C665        C670   1.386       .  A
C665        C666   1.405       .  A
C665        S671   1.710       .  A
C666        C667   1.405       .  A
C666        H677   1.083       .  S
C667        C676   1.376       .  A
C667        C668   1.386       .  A
C668        C669   1.405       .  A
C668        S674   1.710       .  A
C669        C670   1.406       .  A
C669        H678   1.083       .  S
C670        C673   1.376       .  A
S671        C672   1.727       .  A
C672        C673   1.391       .  A
C673        H679   1.083       .  S
S674        C675   1.728       .  A
C675        C676   1.390       .  A
C676        H680   1.083       .  S
C681        C686   1.388       .  A
C681        C682   1.403       .  A
C681        S687   1.709       .  A
C682        C683   1.404       .  A
C682        H693   1.083       .  S
C683        C692   1.371       .  A
C683        C684   1.388       .  A
C684        C685   1.397       .  A
C684        S690   1.700       .  A
C685        C686   1.397       .  A
C685        H694   1.083       .  S
C686        C689   1.364       .  A
S687        C688   1.722       .  A
C688        C689   1.380       .  A
C689        H695   1.083       .  S
S690        C691   1.722       .  A
C691        C692   1.387       .  A
C692        H696   1.083       .  S
C697        C702   1.386       .  A
C697        C698   1.407       .  A
C697        S703   1.713       .  A
C698        C699   1.407       .  A
C698        H709   1.083       .  S
C699        C708   1.378       .  A
C699        C700   1.386       .  A
C700        C701   1.404       .  A
C700        S706   1.709       .  A
C701        C702   1.405       .  A
C701        H710   1.083       .  S
C702        C705   1.375       .  A
S703        C704   1.728       .  A
C704        C705   1.391       .  A
C705        H711   1.083       .  S
S706        C707   1.727       .  A
C707        C708   1.392       .  A
C708        H712   1.083       .  S
C713        C718   1.387       .  A
C713        C714   1.402       .  A
C713        S719   1.705       .  A
C714        C715   1.402       .  A
C714        H725   1.083       .  S
C715        C724   1.373       .  A
C715        C716   1.387       .  A
C716        C717   1.408       .  A
C716        S722   1.713       .  A
C717        C718   1.408       .  A
C717        H726   1.083       .  S
C718        C721   1.379       .  A
S719        C720   1.723       .  A
C720        C721   1.391       .  A
C721        H727   1.083       .  S
S722        C723   1.727       .  A
C723        C724   1.386       .  A
C724        H728   1.083       .  S
C729        C734   1.388       .  A
C729        C730   1.400       .  A
C729        S735   1.709       .  A
C730        C731   1.402       .  A
C730        H741   1.083       .  S
C731        C740   1.366       .  A
C731        C732   1.388       .  A
C732        C733   1.394       .  A
C732        S738   1.699       .  A
C733        C734   1.396       .  A
C733        H742   1.083       .  S
C734        C737   1.360       .  A
S735        C736   1.718       .  A
C736        C737   1.379       .  A
C737        H743   1.083       .  S
S738        C739   1.719       .  A
C739        C740   1.385       .  A
C740        H744   1.083       .  S
C745        C750   1.386       .  A
C745        C746   1.398       .  A
C745        S751   1.699       .  A
C746        C747   1.398       .  A
C746        H757   1.083       .  S
C747        C756   1.368       .  A
C747        C748   1.387       .  A
C748        C749   1.405       .  A
C748        S754   1.711       .  A
C749        C750   1.406       .  A
C749        H758   1.083       .  S
C750        C753   1.375       .  A
S751        C752   1.726       .  A
C752        C753   1.392       .  A
C753        H759   1.083       .  S
S754        C755   1.724       .  A
C755        C756   1.383       .  A
C756        H760   1.083       .  S
C761        C766   1.387       .  A
C761        C762   1.400       .  A
C761        S767   1.706       .  A
C762        C763   1.401       .  A
C762        H773   1.083       .  S
C763        C772   1.369       .  A
C763        C764   1.387       .  A
C764        C765   1.403       .  A
C764        S770   1.709       .  A
C765        C766   1.404       .  A
C765        H774   1.083       .  S
C766        C769   1.371       .  A
S767        C768   1.723       .  A
C768        C769   1.388       .  A
C769        H775   1.083       .  S
S770        C771   1.725       .  A
C771        C772   1.386       .  A
C772        H776   1.083       .  S
C777        C782   1.386       .  A
C777        C778   1.405       .  A
C777        S783   1.709       .  A
C778        C779   1.405       .  A
C778        H789   1.083       .  S
C779        C788   1.377       .  A
C779        C780   1.386       .  A
C780        C781   1.411       .  A
C780        S786   1.716       .  A
C781        C782   1.411       .  A
C781        H790   1.083       .  S
C782        C785   1.383       .  A
S783        C784   1.728       .  A
C784        C785   1.396       .  A
C785        H791   1.083       .  S
S786        C787   1.730       .  A
C787        C788   1.390       .  A
C788        H792   1.083       .  S
C793        C798   1.387       .  A
C793        C794   1.401       .  A
C793        S799   1.707       .  A
C794        C795   1.402       .  A
C794        H805   1.083       .  S
C795        C804   1.369       .  A
C795        C796   1.387       .  A
C796        C797   1.403       .  A
C796        S802   1.709       .  A
C797        C798   1.404       .  A
C797        H806   1.083       .  S
C798        C801   1.372       .  A
S799        C800   1.722       .  A
C800        C801   1.386       .  A
C801        H807   1.083       .  S
S802        C803   1.724       .  A
C803        C804   1.386       .  A
C804        H808   1.083       .  S
C809        C814   1.389       .  A
C809        C810   1.390       .  A
C809        S815   1.697       .  A
C810        C811   1.393       .  A
C810        H821   1.083       .  S
C811        C820   1.353       .  A
C811        C812   1.388       .  A
C812        C813   1.396       .  A
C812        S818   1.707       .  A
C813        C814   1.399       .  A
C813        H822   1.083       .  S
C814        C817   1.359       .  A
S815        C816   1.716       .  A
C816        C817   1.382       .  A
C817        H823   1.084       .  S
S818        C819   1.717       .  A
C819        C820   1.377       .  A
C820        H824   1.084       .  S
C825        C830   1.388       .  A
C825        C826   1.396       .  A
C825        S831   1.704       .  A
C826        C827   1.398       .  A
C826        H837   1.083       .  S
C827        C836   1.359       .  A
C827        C828   1.388       .  A
C828        C829   1.395       .  A
C828        S834   1.705       .  A
C829        C830   1.398       .  A
C829        H838   1.083       .  S
C830        C833   1.360       .  A
S831        C832   1.721       .  A
C832        C833   1.380       .  A
C833        H839   1.083       .  S
S834        C835   1.718       .  A
C835        C836   1.382       .  A
C836        H840   1.084       .  S
C841        C846   1.385       .  A
C841        C842   1.405       .  A
C841        S847   1.711       .  A
C842        C843   1.406       .  A
C842        H853   1.083       .  S
C843        C852   1.377       .  A
C843        C844   1.386       .  A
C844        C845   1.409       .  A
C844        S850   1.717       .  A
C845        C846   1.410       .  A
C845        H854   1.083       .  S
C846        C849   1.379       .  A
S847        C848   1.727       .  A
C848        C849   1.394       .  A
C849        H855   1.083       .  S
S850        C851   1.728       .  A
C851        C852   1.390       .  A
C852        H856   1.083       .  S
C857        C862   1.386       .  A
C857        C858   1.404       .  A
C857        S863   1.708       .  A
C858        C859   1.404       .  A
C858        H869   1.083       .  S
C859        C868   1.376       .  A
C859        C860   1.387       .  A
C860        C861   1.407       .  A
C860        S866   1.710       .  A
C861        C862   1.406       .  A
C861        H870   1.083       .  S
C862        C865   1.377       .  A
S863        C864   1.727       .  A
C864        C865   1.391       .  A
C865        H871   1.083       .  S
S866        C867   1.726       .  A
C867        C868   1.387       .  A
C868        H872   1.083       .  S
C873        C878   1.387       .  A
C873        C874   1.401       .  A
C873        S879   1.702       .  A
C874        C875   1.400       .  A
C874        H885   1.083       .  S
C875        C884   1.370       .  A
C875        C876   1.388       .  A
C876        C877   1.399       .  A
C876        S882   1.699       .  A
C877        C878   1.399       .  A
C877        H886   1.083       .  S
C878        C881   1.368       .  A
S879        C880   1.725       .  A
C880        C881   1.386       .  A
C881        H887   1.083       .  S
S882        C883   1.723       .  A
C883        C884   1.385       .  A
C884        H888   1.083       .  S
C889        C894   1.387       .  A
C889        C890   1.403       .  A
C889        S895   1.706       .  A
C890        C891   1.403       .  A
C890        H901   1.083       .  S
C891        C900   1.371       .  A
C891        C892   1.388       .  A
C892        C893   1.400       .  A
C892        S898   1.705       .  A
C893        C894   1.400       .  A
C893        H902   1.083       .  S
C894        C897   1.370       .  A
S895        C896   1.726       .  A
C896        C897   1.385       .  A
C897        H903   1.083       .  S
S898        C899   1.719       .  A
C899        C900   1.386       .  A
C900        H904   1.083       .  S
C905        C910   1.386       .  A
C905        C906   1.408       .  A
C905        S911   1.713       .  A
C906        C907   1.408       .  A
C906        H917   1.083       .  S
C907        C916   1.378       .  A
C907        C908   1.386       .  A
C908        C909   1.406       .  A
C908        S914   1.712       .  A
C909        C910   1.406       .  A
C909        H918   1.083       .  S
C910        C913   1.379       .  A
S911        C912   1.730       .  A
C912        C913   1.392       .  A
C913        H919   1.083       .  S
S914        C915   1.726       .  A
C915        C916   1.391       .  A
C916        H920   1.083       .  S
C921        C926   1.386       .  A
C921        C922   1.404       .  A
C921        S927   1.709       .  A
C922        C923   1.404       .  A
C922        H933   1.083       .  S
C923        C932   1.376       .  A
C923        C924   1.385       .  A
C924        C925   1.408       .  A
C924        S930   1.713       .  A
C925        C926   1.408       .  A
C925        H934   1.083       .  S
C926        C929   1.380       .  A
S927        C928   1.726       .  A
C928        C929   1.394       .  A
C929        H935   1.083       .  S
S930        C931   1.731       .  A
C931        C932   1.391       .  A
C932        H936   1.083       .  S
C937        C942   1.388       .  A
C937        C938   1.400       .  A
C937        S943   1.707       .  A
C938        C939   1.401       .  A
C938        H949   1.083       .  S
C939        C948   1.368       .  A
C939        C940   1.388       .  A
C940        C941   1.399       .  A
C940        S946   1.703       .  A
C941        C942   1.400       .  A
C941        H950   1.083       .  S
C942        C945   1.366       .  A
S943        C944   1.719       .  A
C944        C945   1.382       .  A
C945        H951   1.083       .  S
S946        C947   1.723       .  A
C947        C948   1.384       .  A
C948        H952   1.083       .  S
C953        C958   1.387       .  A
C953        C954   1.407       .  A
C953        S959   1.712       .  A
C954        C955   1.407       .  A
C954        H965   1.083       .  S
C955        C964   1.377       .  A
C955        C956   1.388       .  A
C956        C957   1.398       .  A
C956        S962   1.702       .  A
C957        C958   1.398       .  A
C957        H966   1.083       .  S
C958        C961   1.368       .  A
S959        C960   1.728       .  A
C960        C961   1.384       .  A
C961        H967   1.083       .  S
S962        C963   1.718       .  A
C963        C964   1.389       .  A
C964        H968   1.083       .  S
C969        C974   1.389       .  A
C969        C970   1.397       .  A
C969        S975   1.703       .  A
C970        C971   1.399       .  A
C970        H981   1.083       .  S
C971        C980   1.365       .  A
C971        C972   1.388       .  A
C972        C973   1.397       .  A
C972        S978   1.702       .  A
C973        C974   1.398       .  A
C973        H982   1.083       .  S
C974        C977   1.362       .  A
S975        C976   1.716       .  A
C976        C977   1.380       .  A
C977        H983   1.083       .  S
S978        C979   1.721       .  A
C979        C980   1.383       .  A
C980        H984   1.083       .  S
C985        C990   1.389       .  A
C985        C986   1.397       .  A
C985        S991   1.703       .  A
C986        C987   1.399       .  A
C986        H997   1.083       .  S
C987        C996   1.364       .  A
C987        C988   1.388       .  A
C988        C989   1.398       .  A
C988        S994   1.703       .  A
C989        C990   1.399       .  A
C989        H998   1.083       .  S
C990        C993   1.365       .  A
S991        C992   1.718       .  A
C992        C993   1.380       .  A
C993        H999   1.083       .  S
S994        C995   1.721       .  A
C995        C996   1.384       .  A
C996       H1000   1.083       .  S
C1001      C1006   1.386       .  A
C1001      C1002   1.407       .  A
C1001      S1007   1.711       .  A
C1002      C1003   1.408       .  A
C1002      H1013   1.083       .  S
C1003      C1012   1.377       .  A
C1003      C1004   1.387       .  A
C1004      C1005   1.400       .  A
C1004      S1010   1.704       .  A
C1005      C1006   1.400       .  A
C1005      H1014   1.083       .  S
C1006      C1009   1.371       .  A
S1007      C1008   1.730       .  A
C1008      C1009   1.386       .  A
C1009      H1015   1.083       .  S
S1010      C1011   1.723       .  A
C1011      C1012   1.392       .  A
C1012      H1016   1.083       .  S
C1017      C1022   1.389       .  A
C1017      C1018   1.392       .  A
C1017      S1023   1.696       .  A
C1018      C1019   1.394       .  A
C1018      H1029   1.083       .  S
C1019      C1028   1.360       .  A
C1019      C1020   1.389       .  A
C1020      C1021   1.399       .  A
C1020      S1026   1.705       .  A
C1021      C1022   1.400       .  A
C1021      H1030   1.083       .  S
C1022      C1025   1.365       .  A
S1023      C1024   1.716       .  A
C1024      C1025   1.383       .  A
C1025      H1031   1.083       .  S
S1026      C1027   1.720       .  A
C1027      C1028   1.377       .  A
C1028      H1032   1.083       .  S
C1033      C1038   1.388       .  A
C1033      C1034   1.398       .  A
C1033      S1039   1.705       .  A
C1034      C1035   1.400       .  A
C1034      H1045   1.083       .  S
C1035      C1044   1.364       .  A
C1035      C1036   1.388       .  A
C1036      C1037   1.396       .  A
C1036      S1042   1.702       .  A
C1037      C1038   1.398       .  A
C1037      H1046   1.083       .  S
C1038      C1041   1.361       .  A
S1039      C1040   1.720       .  A
C1040      C1041   1.382       .  A
C1041      H1047   1.084       .  S
S1042      C1043   1.720       .  A
C1043      C1044   1.382       .  A
C1044      H1048   1.083       .  S
C1049      C1054   1.387       .  A
C1049      C1050   1.398       .  A
C1049      S1055   1.707       .  A
C1050      C1051   1.400       .  A
C1050      H1061   1.083       .  S
C1051      C1060   1.361       .  A
C1051      C1052   1.389       .  A
C1052      C1053   1.394       .  A
C1052      S1058   1.703       .  A
C1053      C1054   1.397       .  A
C1053      H1062   1.083       .  S
C1054      C1057   1.359       .  A
S1055      C1056   1.721       .  A
C1056      C1057   1.382       .  A
C1057      H1063   1.083       .  S
S1058      C1059   1.715       .  A
C1059      C1060   1.382       .  A
C1060      H1064   1.083       .  S
C1065      C1070   1.388       .  A
C1065      C1066   1.402       .  A
C1065      S1071   1.707       .  A
C1066      C1067   1.403       .  A
C1066      H1077   1.083       .  S
C1067      C1076   1.372       .  A
C1067      C1068   1.387       .  A
C1068      C1069   1.401       .  A
C1068      S1074   1.706       .  A
C1069      C1070   1.401       .  A
C1069      H1078   1.083       .  S
C1070      C1073   1.371       .  A
S1071      C1072   1.721       .  A
C1072      C1073   1.384       .  A
C1073      H1079   1.083       .  S
S1074      C1075   1.724       .  A
C1075      C1076   1.387       .  A
C1076      H1080   1.083       .  S
C1081      C1086   1.386       .  A
C1081      C1082   1.405       .  A
C1081      S1087   1.708       .  A
C1082      C1083   1.404       .  A
C1082      H1093   1.083       .  S
C1083      C1092   1.377       .  A
C1083      C1084   1.386       .  A
C1084      C1085   1.408       .  A
C1084      S1090   1.712       .  A
C1085      C1086   1.408       .  A
C1085      H1094   1.083       .  S
C1086      C1089   1.380       .  A
S1087      C1088   1.726       .  A
C1088      C1089   1.393       .  A
C1089      H1095   1.083       .  S
S1090      C1091   1.729       .  A
C1091      C1092   1.390       .  A
C1092      H1096   1.083       .  S
C1097      C1102   1.387       .  A
C1097      C1098   1.396       .  A
C1097      S1103   1.701       .  A
C1098      C1099   1.397       .  A
C1098      H1109   1.083       .  S
C1099      C1108   1.364       .  A
C1099      C1100   1.388       .  A
C1100      C1101   1.402       .  A
C1100      S1106   1.709       .  A
C1101      C1102   1.403       .  A
C1101      H1110   1.083       .  S
C1102      C1105   1.369       .  A
S1103      C1104   1.721       .  A
C1104      C1105   1.387       .  A
C1105      H1111   1.083       .  S
S1106      C1107   1.721       .  A
C1107      C1108   1.379       .  A
C1108      H1112   1.083       .  S
C1113      C1118   1.387       .  A
C1113      C1114   1.399       .  A
C1113      S1119   1.703       .  A
C1114      C1115   1.400       .  A
C1114      H1125   1.083       .  S
C1115      C1124   1.367       .  A
C1115      C1116   1.387       .  A
C1116      C1117   1.399       .  A
C1116      S1122   1.704       .  A
C1117      C1118   1.400       .  A
C1117      H1126   1.083       .  S
C1118      C1121   1.367       .  A
S1119      C1120   1.724       .  A
C1120      C1121   1.385       .  A
C1121      H1127   1.083       .  S
S1122      C1123   1.723       .  A
C1123      C1124   1.385       .  A
C1124      H1128   1.083       .  S
C1129      C1134   1.388       .  A
C1129      C1130   1.400       .  A
C1129      S1135   1.705       .  A
C1130      C1131   1.401       .  A
C1130      H1141   1.083       .  S
C1131      C1140   1.370       .  A
C1131      C1132   1.387       .  A
C1132      C1133   1.403       .  A
C1132      S1138   1.707       .  A
C1133      C1134   1.403       .  A
C1133      H1142   1.083       .  S
C1134      C1137   1.372       .  A
S1135      C1136   1.720       .  A
C1136      C1137   1.385       .  A
C1137      H1143   1.083       .  S
S1138      C1139   1.724       .  A
C1139      C1140   1.386       .  A
C1140      H1144   1.083       .  S
C1145      C1150   1.387       .  A
C1145      C1146   1.402       .  A
C1145      S1151   1.708       .  A
C1146      C1147   1.403       .  A
C1146      H1157   1.083       .  S
C1147      C1156   1.372       .  A
C1147      C1148   1.386       .  A
C1148      C1149   1.405       .  A
C1148      S1154   1.712       .  A
C1149      C1150   1.406       .  A
C1149      H1158   1.083       .  S
C1150      C1153   1.374       .  A
S1151      C1152   1.725       .  A
C1152      C1153   1.389       .  A
C1153      H1159   1.083       .  S
S1154      C1155   1.726       .  A
C1155      C1156   1.390       .  A
C1156      H1160   1.083       .  S
C1161      C1166   1.387       .  A
C1161      C1162   1.406       .  A
C1161      S1167   1.710       .  A
C1162      C1163   1.406       .  A
C1162      H1173   1.083       .  S
C1163      C1172   1.378       .  A
C1163      C1164   1.387       .  A
C1164      C1165   1.404       .  A
C1164      S1170   1.707       .  A
C1165      C1166   1.403       .  A
C1165      H1174   1.083       .  S
C1166      C1169   1.375       .  A
S1167      C1168   1.724       .  A
C1168      C1169   1.387       .  A
C1169      H1175   1.083       .  S
S1170      C1171   1.726       .  A
C1171      C1172   1.390       .  A
C1172      H1176   1.083       .  S
C1177      C1182   1.386       .  A
C1177      C1178   1.407       .  A
C1177      S1183   1.713       .  A
C1178      C1179   1.407       .  A
C1178      H1189   1.083       .  S
C1179      C1188   1.378       .  A
C1179      C1180   1.387       .  A
C1180      C1181   1.404       .  A
C1180      S1186   1.710       .  A
C1181      C1182   1.404       .  A
C1181      H1190   1.083       .  S
C1182      C1185   1.375       .  A
S1183      C1184   1.728       .  A
C1184      C1185   1.389       .  A
C1185      H1191   1.083       .  S
S1186      C1187   1.725       .  A
C1187      C1188   1.392       .  A
C1188      H1192   1.083       .  S
C1193      C1198   1.387       .  A
C1193      C1194   1.400       .  A
C1193      S1199   1.707       .  A
C1194      C1195   1.402       .  A
C1194      H1205   1.083       .  S
C1195      C1204   1.366       .  A
C1195      C1196   1.388       .  A
C1196      C1197   1.393       .  A
C1196      S1202   1.699       .  A
C1197      C1198   1.395       .  A
C1197      H1206   1.083       .  S
C1198      C1201   1.360       .  A
S1199      C1200   1.724       .  A
C1200      C1201   1.381       .  A
C1201      H1207   1.083       .  S
S1202      C1203   1.719       .  A
C1203      C1204   1.384       .  A
C1204      H1208   1.083       .  S
C1209      C1214   1.386       .  A
C1209      C1210   1.404       .  A
C1209      S1215   1.708       .  A
C1210      C1211   1.405       .  A
C1210      H1221   1.083       .  S
C1211      C1220   1.375       .  A
C1211      C1212   1.386       .  A
C1212      C1213   1.405       .  A
C1212      S1218   1.709       .  A
C1213      C1214   1.405       .  A
C1213      H1222   1.083       .  S
C1214      C1217   1.376       .  A
S1215      C1216   1.729       .  A
C1216      C1217   1.391       .  A
C1217      H1223   1.083       .  S
S1218      C1219   1.726       .  A
C1219      C1220   1.390       .  A
C1220      H1224   1.083       .  S
C1225      C1230   1.388       .  A
C1225      C1226   1.402       .  A
C1225      S1231   1.708       .  A
C1226      C1227   1.403       .  A
C1226      H1237   1.083       .  S
C1227      C1236   1.373       .  A
C1227      C1228   1.387       .  A
C1228      C1229   1.403       .  A
C1228      S1234   1.707       .  A
C1229      C1230   1.403       .  A
C1229      H1238   1.083       .  S
C1230      C1233   1.372       .  A
S1231      C1232   1.721       .  A
C1232      C1233   1.385       .  A
C1233      H1239   1.083       .  S
S1234      C1235   1.725       .  A
C1235      C1236   1.387       .  A
C1236      H1240   1.083       .  S
C1241      C1246   1.387       .  A
C1241      C1242   1.399       .  A
C1241      S1247   1.708       .  A
C1242      C1243   1.401       .  A
C1242      H1253   1.083       .  S
C1243      C1252   1.366       .  A
C1243      C1244   1.388       .  A
C1244      C1245   1.397       .  A
C1244      S1250   1.704       .  A
C1245      C1246   1.399       .  A
C1245      H1254   1.083       .  S
C1246      C1249   1.363       .  A
S1247      C1248   1.722       .  A
C1248      C1249   1.384       .  A
C1249      H1255   1.083       .  S
S1250      C1251   1.718       .  A
C1251      C1252   1.383       .  A
C1252      H1256   1.083       .  S
C1257      C1262   1.388       .  A
C1257      C1258   1.399       .  A
C1257      S1263   1.703       .  A
C1258      C1259   1.399       .  A
C1258      H1269   1.083       .  S
C1259      C1268   1.369       .  A
C1259      C1260   1.388       .  A
C1260      C1261   1.403       .  A
C1260      S1266   1.704       .  A
C1261      C1262   1.403       .  A
C1261      H1270   1.083       .  S
C1262      C1265   1.371       .  A
S1263      C1264   1.716       .  A
C1264      C1265   1.385       .  A
C1265      H1271   1.083       .  S
S1266      C1267   1.726       .  A
C1267      C1268   1.382       .  A
C1268      H1272   1.083       .  S
C1273      C1278   1.388       .  A
C1273      C1274   1.396       .  A
C1273      S1279   1.703       .  A
C1274      C1275   1.398       .  A
C1274      H1285   1.083       .  S
C1275      C1284   1.362       .  A
C1275      C1276   1.388       .  A
C1276      C1277   1.399       .  A
C1276      S1282   1.706       .  A
C1277      C1278   1.400       .  A
C1277      H1286   1.083       .  S
C1278      C1281   1.365       .  A
S1279      C1280   1.718       .  A
C1280      C1281   1.381       .  A
C1281      H1287   1.083       .  S
S1282      C1283   1.721       .  A
C1283      C1284   1.382       .  A
C1284      H1288   1.084       .  S
C1289      C1294   1.387       .  A
C1289      C1290   1.400       .  A
C1289      S1295   1.709       .  A
C1290      C1291   1.402       .  A
C1290      H1301   1.083       .  S
C1291      C1300   1.365       .  A
C1291      C1292   1.388       .  A
C1292      C1293   1.395       .  A
C1292      S1298   1.703       .  A
C1293      C1294   1.398       .  A
C1293      H1302   1.083       .  S
C1294      C1297   1.362       .  A
S1295      C1296   1.722       .  A
C1296      C1297   1.381       .  A
C1297      H1303   1.083       .  S
S1298      C1299   1.719       .  A
C1299      C1300   1.384       .  A
C1300      H1304   1.083       .  S
C1305      C1310   1.388       .  A
C1305      C1306   1.398       .  A
C1305      S1311   1.702       .  A
C1306      C1307   1.399       .  A
C1306      H1317   1.083       .  S
C1307      C1316   1.366       .  A
C1307      C1308   1.388       .  A
C1308      C1309   1.398       .  A
C1308      S1314   1.702       .  A
C1309      C1310   1.399       .  A
C1309      H1318   1.083       .  S
C1310      C1313   1.366       .  A
S1311      C1312   1.722       .  A
C1312      C1313   1.384       .  A
C1313      H1319   1.083       .  S
S1314      C1315   1.719       .  A
C1315      C1316   1.381       .  A
C1316      H1320   1.083       .  S
C1321      C1326   1.387       .  A
C1321      C1322   1.399       .  A
C1321      S1327   1.704       .  A
C1322      C1323   1.400       .  A
C1322      H1333   1.083       .  S
C1323      C1332   1.366       .  A
C1323      C1324   1.388       .  A
C1324      C1325   1.397       .  A
C1324      S1330   1.703       .  A
C1325      C1326   1.399       .  A
C1325      H1334   1.083       .  S
C1326      C1329   1.365       .  A
S1327      C1328   1.723       .  A
C1328      C1329   1.384       .  A
C1329      H1335   1.083       .  S
S1330      C1331   1.720       .  A
C1331      C1332   1.384       .  A
C1332      H1336   1.083       .  S
C1337      C1342   1.388       .  A
C1337      C1338   1.400       .  A
C1337      S1343   1.703       .  A
C1338      C1339   1.401       .  A
C1338      H1349   1.083       .  S
C1339      C1348   1.370       .  A
C1339      C1340   1.386       .  A
C1340      C1341   1.402       .  A
C1340      S1346   1.705       .  A
C1341      C1342   1.402       .  A
C1341      H1350   1.083       .  S
C1342      C1345   1.372       .  A
S1343      C1344   1.720       .  A
C1344      C1345   1.383       .  A
C1345      H1351   1.083       .  S
S1346      C1347   1.728       .  A
C1347      C1348   1.388       .  A
C1348      H1352   1.083       .  S
C1353      C1358   1.388       .  A
C1353      C1354   1.401       .  A
C1353      S1359   1.707       .  A
C1354      C1355   1.402       .  A
C1354      H1365   1.083       .  S
C1355      C1364   1.368       .  A
C1355      C1356   1.388       .  A
C1356      C1357   1.396       .  A
C1356      S1362   1.701       .  A
C1357      C1358   1.397       .  A
C1357      H1366   1.083       .  S
C1358      C1361   1.363       .  A
S1359      C1360   1.722       .  A
C1360      C1361   1.381       .  A
C1361      H1367   1.084       .  S
S1362      C1363   1.718       .  A
C1363      C1364   1.384       .  A
C1364      H1368   1.083       .  S
C1369      C1374   1.387       .  A
C1369      C1370   1.399       .  A
C1369      S1375   1.708       .  A
C1370      C1371   1.401       .  A
C1370      H1381   1.083       .  S
C1371      C1380   1.366       .  A
C1371      C1372   1.386       .  A
C1372      C1373   1.403       .  A
C1372      S1378   1.714       .  A
C1373      C1374   1.405       .  A
C1373      H1382   1.083       .  S
C1374      C1377   1.370       .  A
S1375      C1376   1.724       .  A
C1376      C1377   1.389       .  A
C1377      H1383   1.083       .  S
S1378      C1379   1.724       .  A
C1379      C1380   1.387       .  A
C1380      H1384   1.083       .  S
