geometry optimzed in LAMMPS
_audit_creation_date              2020-11-30 
_audit_creation_method            'lammps2cif' 
_symmetry_space_group_name_H-M    'P1' 
_symmetry_Int_Tables_number       1 
_symmetry_cell_setting            triclinic 
loop_ 
_symmetry_equiv_pos_as_xyz 
  x,y,z 
_cell_length_a                    43.09667856 
_cell_length_b                    43.054770450126824 
_cell_length_c                    24.239778915760557 
_cell_angle_alpha                 90.3465522006127 
_cell_angle_beta                  89.70644491748811 
_cell_angle_gamma                 120.03861389461906 
loop_ 
_atom_site_label 
_atom_site_type_symbol 
_atom_site_fract_x 
_atom_site_fract_y 
_atom_site_fract_z 
_atom_site_charge 
O1          O  0.68335744  0.88267509  0.21308040    -0.85700
O2          O  0.68558219  0.86478330  0.32093135    -0.82700
C3          C  0.66563114  0.87428979  0.34523411     0.97800
O4          O  0.63204124  0.85603083  0.33910678    -0.82700
O5          O  0.56719833  0.81143355  0.28829127    -0.85400
C6          C  0.56395528  0.82849486  0.24856605     1.02300
O7          O  0.58380871  0.83591948  0.20650433    -0.78100
O8          O  0.64491683  0.85243700  0.14712147    -0.78300
C9          C  0.67065233  0.88138139  0.16586494     1.02300
O10         O  0.68367618  0.82023261  0.17623943    -0.85700
O11         O  0.67840405  0.79812476  0.28383667    -0.82700
C12         C  0.66603090  0.78812923  0.33174804     0.97800
O13         O  0.64343554  0.79583294  0.35144957    -0.82800
O14         O  0.58159822  0.75341467  0.29199135    -0.85400
C15         C  0.56185700  0.74155949  0.24978864     1.02300
O16         O  0.56558842  0.76233002  0.21045630    -0.78200
O17         O  0.62864206  0.77887972  0.15774921    -0.78300
C18         C  0.66191945  0.79199853  0.15082017     1.02300
Cr19       Cr  0.67884068  0.83961112  0.24866411     1.93700
Cr20       Cr  0.60794673  0.80522008  0.31264262     1.93200
Cr21       Cr  0.60771148  0.80821016  0.18552006     1.39100
O22         O  0.63136022  0.81777289  0.24884246    -1.23400
O23         O  0.14660351  0.81427419  0.17541194    -0.85700
O24         O  0.13196049  0.79542646  0.28507338    -0.82700
C25         C  0.13543976  0.78693401  0.33340897     0.97800
O26         O  0.16619923  0.79536681  0.35157834    -0.82700
O27         O  0.18554095  0.75282679  0.29187184    -0.85400
C28         C  0.19507656  0.74096004  0.25141851     1.02300
O29         O  0.21175949  0.76124301  0.21125114    -0.78100
O30         O  0.16204164  0.77368048  0.16013445    -0.78300
C31         C  0.14086802  0.78543133  0.15224804     1.02300
O32         O  0.21001354  0.87908712  0.20902375    -0.85700
O33         O  0.19146048  0.86359728  0.31755875    -0.82700
C34         C  0.22097247  0.87320677  0.34152251     0.97800
O35         O  0.23678598  0.85547918  0.33473533    -0.82800
O36         O  0.25806826  0.81154887  0.28368551    -0.85400
C37         C  0.27744593  0.82882016  0.24285355     1.02300
O38         O  0.26374547  0.83594133  0.20247389    -0.78200
O39         O  0.21637583  0.84768951  0.14306072    -0.78300
C40         C  0.22135192  0.87737576  0.16176537     1.02300
Cr41       Cr  0.17199397  0.83644072  0.24674735     1.93700
Cr42       Cr  0.21072547  0.80465325  0.31058500     1.93200
Cr43       Cr  0.21231593  0.80542764  0.18404175     1.39100
O44         O  0.19845319  0.81558013  0.24715446    -1.23400
O45         O  0.15319773  0.33354004  0.33163799    -0.85700
O46         O  0.13360818  0.33648030  0.22501140    -0.82700
C47         C  0.13435994  0.34908470  0.17790521     0.97800
O48         O  0.16378405  0.37321454  0.15755809    -0.82700
O49         O  0.18746983  0.43546048  0.21945611    -0.85400
C50         C  0.20052156  0.45717807  0.25933420     1.02300
O51         O  0.21807776  0.45216329  0.29629036    -0.78100
O52         O  0.16899054  0.38964525  0.34790216    -0.78300
C53         C  0.14795882  0.35666370  0.35600849     1.02300
O54         O  0.21554536  0.33246297  0.28945340    -0.85700
O55         O  0.19182871  0.32920539  0.18314324    -0.82700
C56         C  0.21961389  0.34950079  0.15535071     0.97800
O57         O  0.23513176  0.38308113  0.16190515    -0.82800
O58         O  0.25970362  0.44768011  0.21670837    -0.85400
C59         C  0.28046600  0.44957583  0.25524451     1.02300
O60         O  0.26839251  0.42799562  0.29517698    -0.78200
O61         O  0.22282044  0.36908192  0.35741971    -0.78300
C62         C  0.22769354  0.34481936  0.33668299     1.02300
Cr63       Cr  0.17563282  0.33665303  0.25730475     1.93700
Cr64       Cr  0.21074272  0.40794414  0.19366201     1.93200
Cr65       Cr  0.21813101  0.40772697  0.31938114     1.39100
O66         O  0.20152589  0.38412298  0.25651411    -1.23400
O67         O  0.88336156  0.67711478  0.78474825    -0.85700
O68         O  0.86818544  0.68092456  0.67696208    -0.82700
C69         C  0.87772588  0.66054413  0.65382306     0.97800
O70         O  0.85850034  0.62691118  0.65807911    -0.82700
O71         O  0.81089707  0.56107444  0.70395122    -0.85400
C72         C  0.82770594  0.55697288  0.74319024     1.02300
O73         O  0.83741159  0.57795238  0.78407378    -0.78100
O74         O  0.85304138  0.63710190  0.84835728    -0.78300
C75         C  0.88234061  0.66292172  0.83050109     1.02300
O76         O  0.81900553  0.67642430  0.81928517    -0.85700
O77         O  0.80041939  0.67378160  0.71069249    -0.82700
C78         C  0.79183389  0.66261606  0.66190581     0.97800
O79         O  0.80068519  0.64097342  0.64177762    -0.82800
O80         O  0.75592049  0.57910916  0.69869963    -0.85400
C81         C  0.74306444  0.55743893  0.73844522     1.02300
O82         O  0.76293291  0.55926606  0.77832764    -0.78200
O83         O  0.77913173  0.62032592  0.83518297    -0.78300
C84         C  0.79014053  0.65324285  0.84192078     1.02300
Cr85       Cr  0.84099694  0.67338116  0.74778694     1.93700
Cr86       Cr  0.80754679  0.60381559  0.68054059     1.93200
Cr87       Cr  0.80905693  0.60073400  0.80689427     1.39100
O88         O  0.81923370  0.62595513  0.74530487    -1.23400
O89         O  0.88782372  0.21055241  0.72196280    -0.85700
O90         O  0.87028353  0.19509796  0.83113777    -0.82700
C91         C  0.87764868  0.22487756  0.85297362     0.97800
O92         O  0.85823488  0.23850621  0.84359327    -0.82700
O93         O  0.81332672  0.25547502  0.78842252    -0.85400
C94         C  0.83357778  0.27593899  0.75092626     1.02300
O95         O  0.84309228  0.26316901  0.71166316    -0.78100
O96         O  0.85848157  0.21713429  0.65380614    -0.78300
C97         C  0.88742693  0.22160735  0.67412227     1.02300
O98         O  0.82411075  0.14517921  0.68897716    -0.85700
O99         O  0.80403987  0.13254801  0.79829351    -0.82700
C100        C  0.79341333  0.13650876  0.84493199     0.97800
O101        O  0.80000430  0.16718076  0.86093800    -0.82800
O102        O  0.75735111  0.18226325  0.79494799    -0.85400
C103        C  0.74638553  0.19059372  0.75243354     1.02300
O104        O  0.76817883  0.20856697  0.71431407    -0.78200
O105        O  0.78502813  0.16127131  0.66585293    -0.78300
C106        C  0.79655968  0.13956871  0.66211954     1.02300
Cr107      Cr  0.84478487  0.17277295  0.75970582     1.93700
Cr108      Cr  0.80834010  0.20985078  0.81722161     1.93200
Cr109      Cr  0.81439722  0.21150183  0.69141634     1.39100
O110        O  0.82246183  0.19787380  0.75599326    -1.23400
O111        O  0.33876481  0.14471296  0.67937810    -0.85700
O112        O  0.33962232  0.12907255  0.78846975    -0.82700
C113        C  0.35164185  0.13092155  0.83637284     0.97800
O114        O  0.37510649  0.16081714  0.85602828    -0.82700
O115        O  0.43628967  0.17522303  0.79944034    -0.85400
C116        C  0.45801762  0.18321672  0.75982805     1.02300
O117        O  0.45647195  0.20072172  0.71915841    -0.78100
O118        O  0.39353543  0.15552739  0.66554579    -0.78300
C119        C  0.36028663  0.13627337  0.65748791     1.02300
O120        O  0.34386367  0.21158776  0.71153142    -0.85700
O121        O  0.33739711  0.19260149  0.82066914    -0.82700
C122        C  0.35920311  0.22144691  0.84515195     0.97800
O123        O  0.39248437  0.23393991  0.83992104    -0.82800
O124        O  0.45634660  0.24934944  0.79175664    -0.85400
C125        C  0.46033364  0.26994530  0.75197463     1.02300
O126        O  0.44080908  0.25784985  0.70968015    -0.78200
O127        O  0.38091103  0.21429201  0.64700567    -0.78300
C128        C  0.35730918  0.22137797  0.66412260     1.02300
Cr129      Cr  0.34356306  0.17125348  0.75022034     1.93700
Cr130      Cr  0.41325096  0.20400644  0.81675152     1.96200
Cr131      Cr  0.41595197  0.20612838  0.69010618     1.39100
O132        O  0.39096078  0.19384845  0.75235280    -1.23400
C133        C  0.48711759  0.17442771  0.76208813    -0.03500
C134        C  0.49454499  0.16201551  0.81099454    -0.06100
C135        C  0.52469905  0.15786377  0.81447280    -0.21200
C136        C  0.54777991  0.16557868  0.76906436     0.24500
C137        C  0.53968452  0.17705345  0.71966600    -0.18800
C138        C  0.50967341  0.18125200  0.71625379    -0.08700
C139        C  0.58148518  0.16439598  0.77610479    -0.19000
C140        C  0.60082440  0.16274671  0.73346976    -0.23800
C141        C  0.63720990  0.16741670  0.73935302     0.26600
C142        C  0.66070825  0.18104441  0.69426092    -0.20600
C143        C  0.69589844  0.18799534  0.69838618    -0.10200
C144        C  0.70835691  0.18103603  0.74763705    -0.10800
C145        C  0.68446407  0.16605759  0.79224021    -0.03700
C146        C  0.64920362  0.15933775  0.78822298    -0.18800
H147        H  0.47779476  0.15670422  0.84714923     0.10300
H148        H  0.53042887  0.14929706  0.85314148     0.10400
H149        H  0.55713475  0.18444294  0.68411995     0.10000
H150        H  0.50480043  0.19098903  0.67802494     0.11100
H151        H  0.59129272  0.16657926  0.81787502     0.11200
H152        H  0.59092289  0.16030374  0.69174962     0.13100
H153        H  0.65208385  0.18725020  0.65602500     0.09600
H154        H  0.71347753  0.19925265  0.66308602     0.11700
H155        H  0.69317304  0.16007349  0.83056242     0.08300
H156        H  0.63153904  0.14778092  0.82328201     0.11100
C157        C  0.70507228  0.52832983  0.73701605    -0.03500
C158        C  0.68479724  0.52081549  0.68844895    -0.06100
C159        C  0.65015446  0.49110028  0.68553986    -0.21200
C160        C  0.63478933  0.46849732  0.73120269     0.24500
C161        C  0.65471362  0.47673584  0.78041445    -0.18800
C162        C  0.68938686  0.50631578  0.78321102    -0.08700
C163        C  0.59964114  0.43491357  0.72430782    -0.19000
C164        C  0.57858981  0.41598382  0.76694571    -0.23800
C165        C  0.54677831  0.37943192  0.76152102     0.26600
C166        C  0.53601347  0.35717914  0.80801266    -0.20600
C167        C  0.50773317  0.32189954  0.80483919    -0.10200
C168        C  0.48910323  0.30802188  0.75511743    -0.10800
C169        C  0.49898249  0.33056985  0.70884830    -0.03700
C170        C  0.52758528  0.36596258  0.71193584    -0.18800
H171        H  0.69612386  0.53718583  0.65204218     0.10300
H172        H  0.63558444  0.48529099  0.64703966     0.10400
H173        H  0.64452905  0.45965326  0.81620515     0.10000
H174        H  0.70429998  0.51136037  0.82123435     0.11100
H175        H  0.59197946  0.42480115  0.68257599     0.11200
H176        H  0.58615440  0.42643711  0.80851906     0.13100
H177        H  0.55013523  0.36686045  0.84677350     0.09600
H178        H  0.50068381  0.30537307  0.84141413     0.11700
H179        H  0.48497247  0.32071546  0.67007312     0.08300
H180        H  0.53436901  0.38254041  0.67554741     0.11100
C181        C  0.83270169  0.52538032  0.74276384    -0.03500
C182        C  0.80917902  0.49501590  0.71158364    -0.06100
C183        C  0.81048173  0.46338906  0.71514434    -0.21200
C184        C  0.83606238  0.46174023  0.74834365     0.24500
C185        C  0.86061256  0.49233523  0.77806745    -0.18800
C186        C  0.85862715  0.52386691  0.77584990    -0.08700
C187        C  0.83417936  0.42681507  0.75514201    -0.19000
C188        C  0.86259699  0.42220084  0.74883382    -0.23800
C189        C  0.85821843  0.38587442  0.75222584     0.26600
C190        C  0.87391243  0.37421984  0.71236642    -0.20600
C191        C  0.86664638  0.33860915  0.71216058    -0.10200
C192        C  0.84406947  0.31438409  0.75253160    -0.10800
C193        C  0.83010594  0.32687077  0.79413338    -0.03700
C194        C  0.83695141  0.36211997  0.79384048    -0.18800
H195        H  0.78868586  0.49518454  0.68618547     0.10300
H196        H  0.79113031  0.43991198  0.69231903     0.10400
H197        H  0.88017670  0.49131926  0.80465022     0.10000
H198        H  0.87694514  0.54683371  0.80052699     0.11100
H199        H  0.80770809  0.40345798  0.76107532     0.11200
H200        H  0.88839507  0.44469283  0.73663919     0.13100
H201        H  0.89060006  0.39226954  0.68009045     0.09600
H202        H  0.87803940  0.32987789  0.67990517     0.11700
H203        H  0.81300126  0.30911534  0.82633971     0.08300
H204        H  0.82520410  0.37071516  0.82573856     0.11100
C205        C  0.90858548  0.24337641  0.89094254    -0.03500
C206        C  0.92158344  0.27937942  0.90608281    -0.06100
C207        C  0.95062280  0.29684926  0.94212853    -0.21200
C208        C  0.96692416  0.27863381  0.96468386     0.24500
C209        C  0.95419115  0.24269071  0.94914153    -0.18800
C210        C  0.92539704  0.22532085  0.91253774    -0.08700
C211        C  0.99810067  0.29837000  0.00215923    -0.19000
C212        C  0.00702320  0.28220149  0.04137088    -0.23800
C213        C  0.03898079  0.30157557  0.07758790     0.26600
C214        C  0.03962942  0.28613011  0.12808124    -0.20600
C215        C  0.07010265  0.30223689  0.16158673    -0.10200
C216        C  0.10093705  0.33397378  0.14491492    -0.10800
C217        C  0.10015731  0.34971404  0.09469986    -0.03700
C218        C  0.06955750  0.33375070  0.06139688    -0.18800
H219        H  0.90947694  0.29415348  0.88974282     0.10300
H220        H  0.96023293  0.32470601  0.95282559     0.10400
H221        H  0.96679950  0.22813049  0.96426325     0.10000
H222        H  0.91616220  0.19763102  0.90136774     0.11100
H223        H  0.01326514  0.32742431  0.99857258     0.11200
H224        H  0.98969713  0.25361817  0.04845560     0.13100
H225        H  0.01656656  0.26122470  0.14139419     0.09600
H226        H  0.06984093  0.28924063  0.19982589     0.11700
H227        H  0.12351783  0.37404212  0.08051679     0.08300
H228        H  0.07053504  0.34603423  0.02216745     0.11100
C229        C  0.11757552  0.34485975  0.39504137    -0.03500
C230        C  0.10696391  0.36902902  0.41424440    -0.06100
C231        C  0.07765375  0.35749337  0.45000114    -0.21200
C232        C  0.05878124  0.32179032  0.46810299     0.24500
C233        C  0.06943658  0.29762319  0.44894254    -0.18800
C234        C  0.09845457  0.30903499  0.41276853    -0.08700
C235        C  0.02705258  0.31003627  0.50460526    -0.19000
C236        C  0.01632352  0.28286881  0.54068686    -0.23800
C237        C  0.98374987  0.26955845  0.57565077     0.26600
C238        C  0.98211550  0.25228584  0.62536709    -0.20600
C239        C  0.95114261  0.23742079  0.65789639    -0.10200
C240        C  0.92079866  0.23891057  0.64085956    -0.10800
C241        C  0.92242734  0.25633055  0.59112089    -0.03700
C242        C  0.95360503  0.27158700  0.55887646    -0.18800
H243        H  0.12099812  0.39675869  0.40100765     0.10300
H244        H  0.06974152  0.37653042  0.46370466     0.10400
H245        H  0.05486591  0.26963123  0.46066171     0.10000
H246        H  0.10583745  0.28971732  0.39851731     0.11100
H247        H  0.01293444  0.32498946  0.50288722     0.11200
H248        H  0.03263026  0.27040509  0.54625951     0.13100
H249        H  0.00486390  0.25012420  0.63896204     0.09600
H250        H  0.95073713  0.22410473  0.69589031     0.11700
H251        H  0.89948232  0.25788028  0.57683444     0.08300
H252        H  0.95357567  0.28389917  0.52009746     0.11100
C253        C  0.34438562  0.23998818  0.62767960    -0.03500
C254        C  0.32060534  0.25070467  0.64808543    -0.06100
C255        C  0.30746404  0.26728275  0.61354320    -0.21200
C256        C  0.31732279  0.27312049  0.55770457     0.24500
C257        C  0.34168362  0.26306118  0.53732625    -0.18800
C258        C  0.35507335  0.24666102  0.57205219    -0.08700
C259        C  0.30211140  0.29041015  0.52274480    -0.19000
C260        C  0.29828115  0.28614379  0.46760511    -0.23800
C261        C  0.28112508  0.30216765  0.43390166     0.26600
C262        C  0.26563112  0.28639953  0.38300361    -0.20600
C263        C  0.24849286  0.30029501  0.35093805    -0.10200
C264        C  0.24664707  0.33038507  0.36916046    -0.10800
C265        C  0.26296007  0.34668617  0.41940387    -0.03700
C266        C  0.28017866  0.33293404  0.45121746    -0.18800
H267        H  0.31203237  0.24619326  0.69075509     0.10300
H268        H  0.28902530  0.27513690  0.63042629     0.10400
H269        H  0.35076282  0.26813667  0.49497072     0.10000
H270        H  0.37358956  0.23894736  0.55518624     0.11100
H271        H  0.29137920  0.30521543  0.54421213     0.11200
H272        H  0.30580834  0.26847627  0.44672773     0.13100
H273        H  0.26631793  0.26290729  0.36838501     0.09600
H274        H  0.23636158  0.28725564  0.31225942     0.11700
H275        H  0.26253207  0.37024945  0.43421565     0.08300
H276        H  0.29301138  0.34682463  0.48900596     0.11100
C277        C  0.34546498  0.24004688  0.88103089    -0.03500
C278        C  0.36887632  0.26944342  0.91400099    -0.06100
C279        C  0.35576296  0.28684074  0.94777311    -0.21200
C280        C  0.31896622  0.27539944  0.94949870     0.24500
C281        C  0.29560193  0.24620121  0.91585327    -0.18800
C282        C  0.30868447  0.22866453  0.88239883    -0.08700
C283        C  0.30644188  0.29503989  0.98614455    -0.19000
C284        C  0.27184989  0.28251798  0.00026671    -0.23800
C285        C  0.25942929  0.30112218  0.03901516     0.26600
C286        C  0.22612646  0.28065016  0.06514871    -0.20600
C287        C  0.21330138  0.29642590  0.10254597    -0.10200
C288        C  0.23327899  0.33333975  0.11441833    -0.10800
C289        C  0.26623707  0.35417849  0.08719912    -0.03700
C290        C  0.27922845  0.33828195  0.04988166    -0.18800
H291        H  0.39739805  0.27897266  0.91390678     0.10300
H292        H  0.37449474  0.30930822  0.97284695     0.10400
H293        H  0.26719856  0.23689272  0.91423272     0.10000
H294        H  0.28996561  0.20636679  0.85712208     0.11100
H295        H  0.32695295  0.32006328  0.00421479     0.11200
H296        H  0.25149688  0.25625819  0.98577708     0.13100
H297        H  0.21007095  0.25208322  0.05716610     0.09600
H298        H  0.18766705  0.27958422  0.12226602     0.11700
H299        H  0.28213199  0.38275763  0.09501729     0.08300
H300        H  0.30446240  0.35524586  0.02936717     0.11100
C301        C  0.23979850  0.90995403  0.12741262    -0.03500
C302        C  0.24365634  0.94270255  0.14596631    -0.06100
C303        C  0.26102221  0.97336354  0.11317362    -0.21200
C304        C  0.27458040  0.97183788  0.06112499     0.24500
C305        C  0.27140140  0.93927229  0.04306846    -0.18800
C306        C  0.25406276  0.90864542  0.07578549    -0.08700
C307        C  0.29233776  0.00472903  0.02709850    -0.19000
C308        C  0.29323817  0.00384197  0.97163354    -0.23800
C309        C  0.30939934  0.03659961  0.93730544     0.26600
C310        C  0.29638047  0.03456938  0.88371931    -0.20600
C311        C  0.31020615  0.06512093  0.85067361    -0.10200
C312        C  0.33761115  0.09828320  0.87052052    -0.10800
C313        C  0.35148929  0.10004066  0.92353073    -0.03700
C314        C  0.33760335  0.06950493  0.95657155    -0.18800
H315        H  0.23314971  0.94463032  0.18574094     0.10300
H316        H  0.26347192  0.99825762  0.12819329     0.10400
H317        H  0.28268694  0.93739265  0.00404660     0.10000
H318        H  0.25199740  0.88395932  0.06069543     0.11100
H319        H  0.30285125  0.03033650  0.04834905     0.11200
H320        H  0.27942168  0.97819899  0.95019797     0.13100
H321        H  0.27495717  0.00936828  0.86773590     0.09600
H322        H  0.29919849  0.06282110  0.80980229     0.11700
H323        H  0.37304655  0.12506141  0.93962390     0.08300
H324        H  0.34922867  0.07173831  0.99689639     0.11100
C325        C  0.34631943  0.10405591  0.62151051    -0.03500
C326        C  0.36989559  0.09538892  0.59431609    -0.06100
C327        C  0.35665879  0.06476779  0.56095607    -0.21200
C328        C  0.31964008  0.04228118  0.55355255     0.24500
C329        C  0.29596845  0.05069430  0.58123410    -0.18800
C330        C  0.30919696  0.08131123  0.61463790    -0.08700
C331        C  0.30683553  0.01005508  0.51757186    -0.19000
C332        C  0.27511857  0.99476567  0.49111802    -0.23800
C333        C  0.26264071  0.96369207  0.45270329     0.26600
C334        C  0.23570808  0.95749861  0.41461620    -0.20600
C335        C  0.22255701  0.92839265  0.37823137    -0.10200
C336        C  0.23599388  0.90464663  0.37909066    -0.10800
C337        C  0.26298546  0.91072837  0.41713702    -0.03700
C338        C  0.27602820  0.93980756  0.45384842    -0.18800
H339        H  0.39861344  0.11225015  0.59881751     0.10300
H340        H  0.37546531  0.05878909  0.54042658     0.10400
H341        H  0.26724618  0.03344975  0.57807508     0.10000
H342        H  0.29028569  0.08698026  0.63548751     0.11100
H343        H  0.32527796  0.00027825  0.51000692     0.11200
H344        H  0.25827274  0.00674974  0.49501141     0.13100
H345        H  0.22480192  0.97532088  0.41290616     0.09600
H346        H  0.20179640  0.92449462  0.34934778     0.11700
H347        H  0.27350782  0.89262910  0.41926220     0.08300
H348        H  0.29602042  0.94292076  0.48365817     0.11100
C349        C  0.10372960  0.76823859  0.36988407    -0.03500
C350        C  0.06892461  0.75198345  0.34800164    -0.06100
C351        C  0.03905175  0.73424994  0.38254765    -0.21200
C352        C  0.04328107  0.73310133  0.43969278     0.24500
C353        C  0.07806893  0.74944246  0.46176901    -0.18800
C354        C  0.10798372  0.76669679  0.42712365    -0.08700
C355        C  0.01090435  0.71403221  0.47487445    -0.19000
C356        C  0.00910480  0.72465480  0.52648973    -0.23800
C357        C  0.97550663  0.70743523  0.55922991     0.26600
C358        C  0.96772048  0.72873585  0.59408507    -0.20600
C359        C  0.93577547  0.71354179  0.62425050    -0.10200
C360        C  0.91126981  0.67649287  0.62107693    -0.10800
C361        C  0.91949970  0.65498514  0.58716975    -0.03700
C362        C  0.95125189  0.67031633  0.55633736    -0.18800
H363        H  0.06478338  0.75268090  0.30412794     0.10300
H364        H  0.01245979  0.72171646  0.36462230     0.10400
H365        H  0.08220753  0.74838677  0.50553551     0.10000
H366        H  0.13448521  0.77903284  0.44524289     0.11100
H367        H  0.98686382  0.69238324  0.45601647     0.11200
H368        H  0.03190169  0.74866964  0.54337102     0.13100
H369        H  0.98615406  0.75738427  0.59721100     0.09600
H370        H  0.93039452  0.73079694  0.65036927     0.11700
H371        H  0.90130697  0.62630824  0.58423939     0.08300
H372        H  0.95698749  0.65309138  0.53078717     0.11100
C373        C  0.91560232  0.67758869  0.86398589    -0.03500
C374        C  0.94671924  0.70913748  0.84748048    -0.06100
C375        C  0.97759279  0.72414821  0.88006789    -0.21200
C376        C  0.97844198  0.70784906  0.92955758     0.24500
C377        C  0.94761735  0.67581092  0.94556951    -0.18800
C378        C  0.91655394  0.66090252  0.91312402    -0.08700
C379        C  0.01082810  0.72656974  0.96517732    -0.19000
C380        C  0.01986004  0.71021358  0.00397813    -0.23800
C381        C  0.05122961  0.73012984  0.04119666     0.26600
C382        C  0.06887993  0.71275621  0.06204306    -0.20600
C383        C  0.09812388  0.73068493  0.09780053    -0.10200
C384        C  0.10986383  0.76621110  0.11444001    -0.10800
C385        C  0.09167715  0.78332561  0.09450461    -0.03700
C386        C  0.06279810  0.76558404  0.05819260    -0.18800
H387        H  0.94703656  0.72271108  0.80986571     0.10300
H388        H  0.00085924  0.74892358  0.86681360     0.10400
H389        H  0.94688488  0.66283867  0.98398605     0.10000
H390        H  0.89307539  0.63655866  0.92698608     0.11100
H391        H  0.02837135  0.75514031  0.95826315     0.11200
H392        H  0.00459788  0.68117430  0.00763651     0.13100
H393        H  0.06019287  0.68526856  0.05019987     0.09600
H394        H  0.11133601  0.71664807  0.11280187     0.11700
H395        H  0.09990128  0.81062340  0.10676398     0.08300
H396        H  0.04915999  0.77945445  0.04442882     0.11100
C397        C  0.19830242  0.49036506  0.26149636    -0.03500
C398        C  0.22555028  0.52079797  0.28837817    -0.06100
C399        C  0.22588769  0.55334541  0.28746559    -0.21200
C400        C  0.19852574  0.55606696  0.26107927     0.24500
C401        C  0.17050693  0.52541574  0.23562053    -0.18800
C402        C  0.17063352  0.49287114  0.23532247    -0.08700
C403        C  0.20170193  0.59188069  0.25722643    -0.19000
C404        C  0.17349329  0.59715749  0.25792735    -0.23800
C405        C  0.17838201  0.63373225  0.25486313     0.26600
C406        C  0.15747817  0.64294786  0.28816997    -0.20600
C407        C  0.16278272  0.67780737  0.28722948    -0.10200
C408        C  0.18845141  0.70374970  0.25174035    -0.10800
C409        C  0.20855491  0.69409025  0.21712842    -0.03700
C410        C  0.20376454  0.65953532  0.21892660    -0.18800
H411        H  0.24739809  0.51980073  0.30850839     0.10300
H412        H  0.24785811  0.57665616  0.30706118     0.10400
H413        H  0.14935881  0.52693972  0.21418860     0.10000
H414        H  0.14933766  0.46979824  0.21430865     0.11100
H415        H  0.22863645  0.61510512  0.25663472     0.11200
H416        H  0.14663041  0.57458049  0.26443922     0.13100
H417        H  0.13760598  0.62335599  0.31594661     0.09600
H418        H  0.14681036  0.68444959  0.31412395     0.11700
H419        H  0.22853272  0.71347859  0.18928504     0.08300
H420        H  0.21973797  0.65292128  0.19200049     0.11100
C421        C  0.77808729  0.10775722  0.62506239    -0.03500
C422        C  0.74611598  0.09999416  0.59826810    -0.06100
C423        C  0.72868029  0.07021580  0.56322381    -0.21200
C424        C  0.74269478  0.04740754  0.55362782     0.24500
C425        C  0.77459893  0.05496549  0.58088097    -0.18800
C426        C  0.79205148  0.08480032  0.61604691    -0.08700
C427        C  0.72264345  0.01590611  0.51594304    -0.19000
C428        C  0.73641001  0.99651552  0.49400874    -0.23800
C429        C  0.71675934  0.96596938  0.45479383     0.26600
C430        C  0.73692531  0.95664829  0.42001615    -0.20600
C431        C  0.72014348  0.92745822  0.38399063    -0.10200
C432        C  0.68253924  0.90633674  0.38202782    -0.10800
C433        C  0.66210720  0.91580979  0.41626357    -0.03700
C434        C  0.67902122  0.94527172  0.45245977    -0.18800
H435        H  0.73442512  0.11691958  0.60444907     0.10300
H436        H  0.70409478  0.06506446  0.54329552     0.10400
H437        H  0.78607507  0.03781924  0.57610408     0.10000
H438        H  0.81650606  0.08985090  0.63624471     0.11100
H439        H  0.69588458  0.00959583  0.50382573     0.11200
H440        H  0.76405863  0.00428738  0.50244042     0.13100
H441        H  0.76596401  0.97202657  0.42078569     0.09600
H442        H  0.73681757  0.92123985  0.35797006     0.11700
H443        H  0.63311069  0.90005877  0.41586482     0.08300
H444        H  0.66247763  0.95106243  0.47941915     0.11100
C445        C  0.68728997  0.91321483  0.13041678    -0.03500
C446        C  0.72464320  0.93574049  0.13023228    -0.06100
C447        C  0.74084562  0.96396901  0.09268458    -0.21200
C448        C  0.71988809  0.97074540  0.05602787     0.24500
C449        C  0.68240578  0.94852743  0.05693151    -0.18800
C450        C  0.66628759  0.91978343  0.09354220    -0.08700
C451        C  0.73777932  0.00006674  0.01555676    -0.19000
C452        C  0.72316956  0.01954456  0.99865004    -0.23800
C453        C  0.74104590  0.04892423  0.95829192     0.26600
C454        C  0.73701611  0.07912241  0.96351936    -0.20600
C455        C  0.75387986  0.10748030  0.92638725    -0.10200
C456        C  0.77440565  0.10572589  0.88249259    -0.10800
C457        C  0.77754160  0.07497467  0.87624164    -0.03700
C458        C  0.76118423  0.04686605  0.91403559    -0.18800
H459        H  0.74135170  0.93070991  0.15775394     0.10300
H460        H  0.76979536  0.98055688  0.09221008     0.10400
H461        H  0.66563236  0.95261452  0.02823281     0.10000
H462        H  0.63743049  0.90249412  0.09281456     0.11100
H463        H  0.76443682  0.00691917  0.00138871     0.11200
H464        H  0.69834021  0.01526273  0.01734497     0.13100
H465        H  0.72129542  0.08104961  0.99706462     0.09600
H466        H  0.75082733  0.13076752  0.93196380     0.11700
H467        H  0.79318928  0.07293718  0.84272004     0.08300
H468        H  0.76395147  0.02343837  0.90826134     0.11100
C469        C  0.76933358  0.66496895  0.87657397    -0.03500
C470        C  0.73839143  0.63989284  0.90513760    -0.06100
C471        C  0.71872688  0.65124105  0.93722404    -0.21200
C472        C  0.72965870  0.68782590  0.94180245     0.24500
C473        C  0.75999625  0.71276293  0.91183690    -0.18800
C474        C  0.77966544  0.70147459  0.87997183    -0.08700
C475        C  0.70898819  0.69926863  0.97780443    -0.19000
C476        C  0.72461195  0.73166365  0.00274836    -0.23800
C477        C  0.70650528  0.74536939  0.04011471     0.26600
C478        C  0.72799793  0.77913415  0.06447423    -0.20600
C479        C  0.71329040  0.79395598  0.09990423    -0.10200
C480        C  0.67645271  0.77552536  0.11211857    -0.10800
C481        C  0.65457846  0.74176276  0.08758444    -0.03700
C482        C  0.66943694  0.72675059  0.05190254    -0.18800
H483        H  0.72943402  0.61153330  0.90286405     0.10300
H484        H  0.69520991  0.63141551  0.95925051     0.10400
H485        H  0.76845628  0.74101435  0.91224030     0.10000
H486        H  0.80287703  0.72142814  0.85756596     0.11100
H487        H  0.68107079  0.67989403  0.98570710     0.11200
H488        H  0.75319011  0.74935239  0.99681265     0.13100
H489        H  0.75651669  0.79426441  0.05615842     0.09600
H490        H  0.73100853  0.82010393  0.11772986     0.11700
H491        H  0.62612154  0.72691152  0.09622244     0.08300
H492        H  0.65170880  0.70076561  0.03384448     0.11100
C493        C  0.77262090  0.67572173  0.62721118    -0.03500
C494        C  0.76423180  0.70128207  0.64751848    -0.06100
C495        C  0.74699368  0.71425992  0.61389122    -0.21200
C496        C  0.73798423  0.70216905  0.55922484     0.24500
C497        C  0.74549356  0.67584081  0.53941600    -0.18800
C498        C  0.76275866  0.66292179  0.57296433    -0.08700
C499        C  0.72051678  0.71739040  0.52455551    -0.19000
C500        C  0.72151650  0.71747079  0.46893046    -0.23800
C501        C  0.70592939  0.73455307  0.43421209     0.26600
C502        C  0.71889983  0.74477545  0.38023085    -0.20600
C503        C  0.70570666  0.76179656  0.34660104    -0.10200
C504        C  0.67902011  0.76872674  0.36619455    -0.10800
C505        C  0.66531369  0.75760321  0.41968686    -0.03700
C506        C  0.67847242  0.74055935  0.45326246    -0.18800
H507        H  0.77125849  0.71151532  0.68927713     0.10300
H508        H  0.74115930  0.73420006  0.63037438     0.10400
H509        H  0.73781075  0.66477375  0.49827443     0.10000
H510        H  0.76840663  0.64288531  0.55630714     0.11100
H511        H  0.70859384  0.73101802  0.54588874     0.11200
H512        H  0.73635840  0.70681213  0.44771462     0.13100
H513        H  0.73973852  0.74011103  0.36432117     0.09600
H514        H  0.71670699  0.76987182  0.30548877     0.11700
H515        H  0.64445956  0.76217951  0.43578626     0.08300
H516        H  0.66677375  0.73192475  0.49380671     0.11100
C517        C  0.31569779  0.83830872  0.24099432    -0.03500
C518        C  0.33711693  0.85500541  0.19442016    -0.06100
C519        C  0.37186754  0.86022655  0.19038884    -0.21200
C520        C  0.38619141  0.84913550  0.23283328     0.24500
C521        C  0.36501327  0.83326362  0.28011007    -0.18800
C522        C  0.33035156  0.82811497  0.28416129    -0.08700
C523        C  0.42184763  0.85183383  0.22433500    -0.19000
C524        C  0.44168290  0.85000273  0.26575021    -0.23800
C525        C  0.47514235  0.84801104  0.25881843     0.26600
C526        C  0.49034429  0.84273465  0.30640432    -0.20600
C527        C  0.51982234  0.83764654  0.30289582    -0.10200
C528        C  0.53528401  0.83797223  0.25160531    -0.10800
C529        C  0.52122549  0.84471532  0.20390256    -0.03700
C530        C  0.49133987  0.84952745  0.20734272    -0.18800
H531        H  0.32667165  0.86312150  0.16030875     0.10300
H532        H  0.38737072  0.87232486  0.15337088     0.10400
H533        H  0.37424064  0.82326335  0.31324673     0.10000
H534        H  0.31455902  0.81495486  0.32046329     0.11100
H535        H  0.43136382  0.85476118  0.18212817     0.11200
H536        H  0.43251574  0.84887534  0.30787988     0.13100
H537        H  0.47875771  0.84157689  0.34666604     0.09600
H538        H  0.53014126  0.83277518  0.34053092     0.11700
H539        H  0.53251804  0.84500681  0.16378055     0.08300
H540        H  0.48092220  0.85374904  0.16942730     0.11100
C541        C  0.31822490  0.47937146  0.25608405    -0.03500
C542        C  0.33982422  0.48530541  0.30271753    -0.06100
C543        C  0.37359192  0.51618930  0.30690900    -0.21200
C544        C  0.38682223  0.54163803  0.26439633     0.24500
C545        C  0.36560397  0.53522207  0.21700924    -0.18800
C546        C  0.33177937  0.50441641  0.21291346    -0.08700
C547        C  0.42137900  0.57569142  0.27278481    -0.19000
C548        C  0.44172613  0.59644757  0.23087325    -0.23800
C549        C  0.47415074  0.63260232  0.23764363     0.26600
C550        C  0.48645376  0.65498982  0.19131879    -0.20600
C551        C  0.51531844  0.68991498  0.19534166    -0.10200
C552        C  0.53301377  0.70345829  0.24586029    -0.10800
C553        C  0.52177839  0.68072469  0.29197674    -0.03700
C554        C  0.49258363  0.64562549  0.28801393    -0.18800
H555        H  0.33012640  0.46674283  0.33695696     0.10300
H556        H  0.38917993  0.52055345  0.34401781     0.10400
H557        H  0.37415496  0.55458115  0.18399220     0.10000
H558        H  0.31570708  0.50090100  0.17671077     0.11100
H559        H  0.42956786  0.58392913  0.31506263     0.11200
H560        H  0.43347920  0.58733048  0.18885061     0.13100
H561        H  0.47311006  0.64571320  0.15189388     0.09600
H562        H  0.52347538  0.70650737  0.15877110     0.11700
H563        H  0.53504766  0.69029250  0.33134995     0.08300
H564        H  0.48472617  0.62906270  0.32448162     0.11100
loop_ 
_geom_bond_atom_site_label_1 
_geom_bond_atom_site_label_2 
_geom_bond_distance 
_geom_bond_site_symmetry_2 
_ccdc_geom_bond_type 
O1          Cr19   1.969       .  S
O1            C9   1.260       .  A
O2          Cr19   1.999       .  S
O2            C3   1.264       .  A
C3            O4   1.264       .  A
C3          C432   1.488       .  S
O4          Cr20   1.998       .  S
O5          Cr20   1.997       .  S
O5            C6   1.265       .  A
C6            O7   1.263       .  A
C6          C528   1.484       .  S
O7          Cr21   1.990       .  S
O8          Cr21   2.003       .  S
O8            C9   1.267       .  A
C9          C445   1.468       .  S
O10         Cr19   1.994       .  S
O10          C18   1.262       .  A
O11         Cr19   1.975       .  S
O11          C12   1.260       .  A
C12          O13   1.266       .  A
C12         C504   1.480       .  S
O13         Cr20   2.006       .  S
O14         Cr20   1.993       .  S
O14          C15   1.264       .  A
C15          O16   1.265       .  A
C15         C552   1.484       .  S
O16         Cr21   1.994       .  S
O17         Cr21   1.996       .  S
O17          C18   1.262       .  A
C18         C480   1.485       .  S
Cr19         O22   1.773       .  S
Cr20         O22   1.775       .  S
Cr21         O22   1.776       .  S
O23         Cr41   2.013       .  S
O23          C31   1.267       .  A
O24         Cr41   1.978       .  S
O24          C25   1.261       .  A
C25          O26   1.267       .  A
C25         C349   1.481       .  S
O26         Cr42   2.012       .  S
O27         Cr42   1.983       .  S
O27          C28   1.262       .  A
C28          O29   1.266       .  A
C28         C408   1.480       .  S
O29         Cr43   2.006       .  S
O30         Cr43   1.984       .  S
O30          C31   1.261       .  A
C31         C384   1.485       .  S
O32         Cr41   1.971       .  S
O32          C40   1.259       .  A
O33         Cr41   2.006       .  S
O33          C34   1.267       .  A
C34          O35   1.262       .  A
C34         C336   1.481       .  S
O35         Cr42   1.981       .  S
O36         Cr42   2.015       .  S
O36          C37   1.268       .  A
C37          O38   1.262       .  A
C37         C517   1.487       .  S
O38         Cr43   1.981       .  S
O39         Cr43   2.007       .  S
O39          C40   1.267       .  A
C40         C301   1.478       .  S
Cr41         O44   1.770       .  S
Cr42         O44   1.770       .  S
Cr43         O44   1.770       .  S
O45         Cr63   2.014       .  S
O45          C53   1.268       .  A
O46         Cr63   1.973       .  S
O46          C47   1.261       .  A
C47          O48   1.269       .  A
C47         C216   1.485       .  S
O48         Cr64   2.017       .  S
O49         Cr64   1.994       .  S
O49          C50   1.262       .  A
C50          O51   1.263       .  A
C50         C397   1.480       .  S
O51         Cr65   1.998       .  S
O52         Cr65   1.977       .  S
O52          C53   1.261       .  A
C53         C229   1.482       .  S
O54         Cr63   1.981       .  S
O54          C62   1.260       .  A
O55         Cr63   2.006       .  S
O55          C56   1.266       .  A
C56          O57   1.262       .  A
C56         C288   1.487       .  S
O57         Cr64   1.988       .  S
O58         Cr64   2.019       .  S
O58          C59   1.271       .  A
C59          O60   1.262       .  A
C59         C541   1.485       .  S
O60         Cr65   1.974       .  S
O61         Cr65   2.004       .  S
O61          C62   1.265       .  A
C62         C264   1.481       .  S
Cr63         O66   1.772       .  S
Cr64         O66   1.771       .  S
Cr65         O66   1.770       .  S
O67         Cr85   1.971       .  S
O67          C75   1.259       .  A
O68         Cr85   2.008       .  S
O68          C69   1.267       .  A
C69          O70   1.262       .  A
C69         C360   1.481       .  S
O70         Cr86   1.979       .  S
O71         Cr86   2.002       .  S
O71          C72   1.264       .  A
C72          O73   1.260       .  A
C72         C181   1.480       .  S
O73         Cr87   1.987       .  S
O74         Cr87   2.021       .  S
O74          C75   1.270       .  A
C75         C373   1.487       .  S
O76         Cr85   2.006       .  S
O76          C84   1.265       .  A
O77         Cr85   1.978       .  S
O77          C78   1.259       .  A
C78          O79   1.265       .  A
C78         C493   1.481       .  S
O79         Cr86   2.006       .  S
O80         Cr86   1.975       .  S
O80          C81   1.262       .  A
C81          O82   1.270       .  A
C81         C157   1.483       .  S
O82         Cr87   2.016       .  S
O83         Cr87   1.979       .  S
O83          C84   1.259       .  A
C84         C469   1.485       .  S
Cr85         O88   1.770       .  S
Cr86         O88   1.771       .  S
Cr87         O88   1.771       .  S
O89        Cr107   1.976       .  S
O89          C97   1.260       .  A
O90        Cr107   2.018       .  S
O90          C91   1.269       .  A
C91          O92   1.261       .  A
C91         C205   1.483       .  S
O92        Cr108   1.976       .  S
O93        Cr108   1.996       .  S
O93          C94   1.263       .  A
C94          O95   1.262       .  A
C94         C192   1.482       .  S
O95        Cr109   1.989       .  S
O96        Cr109   2.006       .  S
O96          C97   1.265       .  A
C97         C240   1.482       .  S
O98        Cr107   2.019       .  S
O98         C106   1.269       .  A
O99        Cr107   1.979       .  S
O99         C100   1.260       .  A
C100        O101   1.263       .  A
C100        C456   1.475       .  S
O101       Cr108   1.996       .  S
O102       Cr108   1.981       .  S
O102        C103   1.262       .  A
C103        O104   1.268       .  A
C103        C144   1.482       .  S
O104       Cr109   2.007       .  S
O105       Cr109   1.978       .  S
O105        C106   1.262       .  A
C106        C421   1.489       .  S
Cr107       O110   1.773       .  S
Cr108       O110   1.771       .  S
Cr109       O110   1.771       .  S
O111       Cr129   2.010       .  S
O111        C119   1.266       .  A
O112       Cr129   1.974       .  S
O112        C113   1.260       .  A
C113        O114   1.265       .  A
C113        C312   1.478       .  S
O114       Cr130   2.003       .  S
O115       Cr130   1.980       .  S
O115        C116   1.261       .  A
C116        O117   1.267       .  A
C116        C133   1.482       .  S
O117       Cr131   2.005       .  S
O118       Cr131   1.979       .  S
O118        C119   1.261       .  A
C119        C325   1.484       .  S
O120       Cr129   1.973       .  S
O120        C128   1.260       .  A
O121       Cr129   2.013       .  S
O121        C122   1.267       .  A
C122        O123   1.261       .  A
C122        C277   1.486       .  S
O123       Cr130   1.979       .  S
O124       Cr130   2.000       .  S
O124        C125   1.266       .  A
C125        O126   1.263       .  A
C125        C168   1.482       .  S
O126       Cr131   1.984       .  S
O127       Cr131   2.012       .  S
O127        C128   1.267       .  A
C128        C253   1.481       .  S
Cr129       O132   1.770       .  S
Cr130       O132   1.771       .  S
Cr131       O132   1.772       .  S
C133        C134   1.406       .  A
C133        C138   1.404       .  A
C134        C135   1.401       .  A
C134        H147   1.083       .  S
C135        C136   1.405       .  A
C135        H148   1.083       .  S
C136        C137   1.408       .  A
C136        C139   1.489       .  S
C137        C138   1.396       .  A
C137        H149   1.080       .  S
C138        H150   1.083       .  S
C139        C140   1.348       .  D
C139        H151   1.084       .  S
C140        C141   1.485       .  S
C140        H152   1.084       .  S
C141        C142   1.402       .  A
C141        C146   1.408       .  A
C142        C143   1.395       .  A
C142        H153   1.084       .  S
C143        C144   1.405       .  A
C143        H154   1.082       .  S
C144        C145   1.406       .  A
C145        C146   1.401       .  A
C145        H155   1.083       .  S
C146        H156   1.081       .  S
C157        C158   1.406       .  A
C157        C162   1.405       .  A
C158        C159   1.399       .  A
C158        H171   1.083       .  S
C159        C160   1.404       .  A
C159        H172   1.083       .  S
C160        C161   1.409       .  A
C160        C163   1.490       .  S
C161        C162   1.398       .  A
C161        H173   1.080       .  S
C162        H174   1.083       .  S
C163        C164   1.348       .  D
C163        H175   1.084       .  S
C164        C165   1.488       .  S
C164        H176   1.084       .  S
C165        C166   1.402       .  A
C165        C170   1.409       .  A
C166        C167   1.395       .  A
C166        H177   1.084       .  S
C167        C168   1.405       .  A
C167        H178   1.083       .  S
C168        C169   1.406       .  A
C169        C170   1.402       .  A
C169        H179   1.083       .  S
C170        H180   1.081       .  S
C181        C182   1.406       .  A
C181        C186   1.407       .  A
C182        C183   1.394       .  A
C182        H195   1.082       .  S
C183        C184   1.399       .  A
C183        H196   1.085       .  S
C184        C185   1.405       .  A
C184        C187   1.475       .  S
C185        C186   1.404       .  A
C185        H197   1.082       .  S
C186        H198   1.084       .  S
C187        C188   1.343       .  D
C187        H199   1.089       .  S
C188        C189   1.481       .  S
C188        H200   1.088       .  S
C189        C190   1.404       .  A
C189        C194   1.403       .  A
C190        C191   1.403       .  A
C190        H201   1.084       .  S
C191        C192   1.407       .  A
C191        H202   1.082       .  S
C192        C193   1.407       .  A
C193        C194   1.394       .  A
C193        H203   1.084       .  S
C194        H204   1.082       .  S
C205        C206   1.406       .  A
C205        C210   1.406       .  A
C206        C207   1.399       .  A
C206        H219   1.082       .  S
C207        C208   1.403       .  A
C207        H220   1.085       .  S
C208        C209   1.408       .  A
C208        C211   1.487   1_556  S
C209        C210   1.400       .  A
C209        H221   1.081       .  S
C210        H222   1.084       .  S
C211        C212   1.347   1_655  D
C211        H223   1.087   1_654  S
C212        C213   1.489       .  S
C212        H224   1.088   1_455  S
C213        C214   1.404       .  A
C213        C218   1.408       .  A
C214        C215   1.399       .  A
C214        H225   1.084       .  S
C215        C216   1.407       .  A
C215        H226   1.083       .  S
C216        C217   1.405       .  A
C217        C218   1.400       .  A
C217        H227   1.083       .  S
C218        H228   1.081       .  S
C229        C230   1.406       .  A
C229        C234   1.405       .  A
C230        C231   1.400       .  A
C230        H243   1.083       .  S
C231        C232   1.403       .  A
C231        H244   1.083       .  S
C232        C233   1.407       .  A
C232        C235   1.486       .  S
C233        C234   1.398       .  A
C233        H245   1.083       .  S
C234        H246   1.083       .  S
C235        C236   1.347       .  D
C235        H247   1.086       .  S
C236        C237   1.485   1_455  S
C236        H248   1.086       .  S
C237        C238   1.403       .  A
C237        C242   1.407       .  A
C238        C239   1.398       .  A
C238        H249   1.083   1_655  S
C239        C240   1.405       .  A
C239        H250   1.083       .  S
C240        C241   1.407       .  A
C241        C242   1.400       .  A
C241        H251   1.083       .  S
C242        H252   1.082       .  S
C253        C254   1.405       .  A
C253        C258   1.407       .  A
C254        C255   1.396       .  A
C254        H267   1.082       .  S
C255        C256   1.403       .  A
C255        H268   1.085       .  S
C256        C257   1.408       .  A
C256        C259   1.485       .  S
C257        C258   1.400       .  A
C257        H269   1.081       .  S
C258        H270   1.084       .  S
C259        C260   1.348       .  D
C259        H271   1.086       .  S
C260        C261   1.488       .  S
C260        H272   1.087       .  S
C261        C262   1.405       .  A
C261        C266   1.407       .  A
C262        C263   1.401       .  A
C262        H273   1.084       .  S
C263        C264   1.406       .  A
C263        H274   1.083       .  S
C264        C265   1.405       .  A
C265        C266   1.395       .  A
C265        H275   1.083       .  S
C266        H276   1.082       .  S
C277        C278   1.406       .  A
C277        C282   1.406       .  A
C278        C279   1.401       .  A
C278        H291   1.084       .  S
C279        C280   1.406       .  A
C279        H292   1.083       .  S
C280        C281   1.410       .  A
C280        C283   1.496       .  S
C281        C282   1.400       .  A
C281        H293   1.082       .  S
C282        H294   1.082       .  S
C283        C284   1.350   1_556  D
C283        H295   1.086   1_556  S
C284        C285   1.492       .  S
C284        H296   1.085   1_554  S
C285        C286   1.403       .  A
C285        C290   1.410       .  A
C286        C287   1.397       .  A
C286        H297   1.084       .  S
C287        C288   1.406       .  A
C287        H298   1.082       .  S
C288        C289   1.407       .  A
C289        C290   1.404       .  A
C289        H299   1.083       .  S
C290        H300   1.080       .  S
C301        C302   1.406       .  A
C301        C306   1.405       .  A
C302        C303   1.397       .  A
C302        H315   1.083       .  S
C303        C304   1.403       .  A
C303        H316   1.084       .  S
C304        C305   1.406       .  A
C304        C307   1.481   1_565  S
C305        C306   1.395       .  A
C305        H317   1.082       .  S
C306        H318   1.083       .  S
C307        C308   1.346   1_554  D
C307        H319   1.087       .  S
C308        C309   1.480       .  S
C308        H320   1.087   1_545  S
C309        C310   1.402       .  A
C309        C314   1.406       .  A
C310        C311   1.396       .  A
C310        H321   1.084       .  S
C311        C312   1.405       .  A
C311        H322   1.083       .  S
C312        C313   1.406       .  A
C313        C314   1.396       .  A
C313        H323   1.083       .  S
C314        H324   1.082       .  S
C325        C326   1.406       .  A
C325        C330   1.407       .  A
C326        C327   1.399       .  A
C326        H339   1.082       .  S
C327        C328   1.403       .  A
C327        H340   1.084       .  S
C328        C329   1.408       .  A
C328        C331   1.488       .  S
C329        C330   1.399       .  A
C329        H341   1.081       .  S
C330        H342   1.083       .  S
C331        C332   1.348   1_545  D
C331        H343   1.084       .  S
C332        C333   1.489       .  S
C332        H344   1.084   1_565  S
C333        C334   1.403       .  A
C333        C338   1.409       .  A
C334        C335   1.396       .  A
C334        H345   1.083       .  S
C335        C336   1.405       .  A
C335        H346   1.083       .  S
C336        C337   1.405       .  A
C337        C338   1.401       .  A
C337        H347   1.082       .  S
C338        H348   1.083       .  S
C349        C350   1.405       .  A
C349        C354   1.407       .  A
C350        C351   1.398       .  A
C350        H363   1.082       .  S
C351        C352   1.402       .  A
C351        H364   1.085       .  S
C352        C353   1.406       .  A
C352        C355   1.482       .  S
C353        C354   1.399       .  A
C353        H365   1.082       .  S
C354        H366   1.084       .  S
C355        C356   1.345       .  D
C355        H367   1.088   1_455  S
C356        C357   1.482   1_455  S
C356        H368   1.088       .  S
C357        C358   1.401       .  A
C357        C362   1.407       .  A
C358        C359   1.397       .  A
C358        H369   1.085       .  S
C359        C360   1.407       .  A
C359        H370   1.083       .  S
C360        C361   1.406       .  A
C361        C362   1.399       .  A
C361        H371   1.084       .  S
C362        H372   1.082       .  S
C373        C374   1.407       .  A
C373        C378   1.406       .  A
C374        C375   1.398       .  A
C374        H387   1.082       .  S
C375        C376   1.403       .  A
C375        H388   1.085   1_655  S
C376        C377   1.409       .  A
C376        C379   1.490   1_655  S
C377        C378   1.403       .  A
C377        H389   1.081       .  S
C378        H390   1.084       .  S
C379        C380   1.348   1_556  D
C379        H391   1.088       .  S
C380        C381   1.490       .  S
C380        H392   1.087       .  S
C381        C382   1.404       .  A
C381        C386   1.407       .  A
C382        C383   1.402       .  A
C382        H393   1.085       .  S
C383        C384   1.406       .  A
C383        H394   1.082       .  S
C384        C385   1.406       .  A
C385        C386   1.399       .  A
C385        H395   1.084       .  S
C386        H396   1.081       .  S
C397        C398   1.406       .  A
C397        C402   1.405       .  A
C398        C399   1.394       .  A
C398        H411   1.083       .  S
C399        C400   1.400       .  A
C399        H412   1.085       .  S
C400        C401   1.408       .  A
C400        C403   1.482       .  S
C401        C402   1.404       .  A
C401        H413   1.082       .  S
C402        H414   1.084       .  S
C403        C404   1.344       .  D
C403        H415   1.089       .  S
C404        C405   1.483       .  S
C404        H416   1.088       .  S
C405        C406   1.403       .  A
C405        C410   1.405       .  A
C406        C407   1.401       .  A
C406        H417   1.084       .  S
C407        C408   1.406       .  A
C407        H418   1.082       .  S
C408        C409   1.406       .  A
C409        C410   1.397       .  A
C409        H419   1.084       .  S
C410        H420   1.082       .  S
C421        C422   1.406       .  A
C421        C426   1.407       .  A
C422        C423   1.400       .  A
C422        H435   1.083       .  S
C423        C424   1.405       .  A
C423        H436   1.083       .  S
C424        C425   1.411       .  A
C424        C427   1.497       .  S
C425        C426   1.403       .  A
C425        H437   1.080       .  S
C426        H438   1.083       .  S
C427        C428   1.349   1_545  D
C427        H439   1.086       .  S
C428        C429   1.493       .  S
C428        H440   1.084   1_565  S
C429        C430   1.402       .  A
C429        C434   1.411       .  A
C430        C431   1.396       .  A
C430        H441   1.084       .  S
C431        C432   1.407       .  A
C431        H442   1.083       .  S
C432        C433   1.407       .  A
C433        C434   1.406       .  A
C433        H443   1.083       .  S
C434        H444   1.081       .  S
C445        C446   1.403       .  A
C445        C450   1.402       .  A
C446        C447   1.397       .  A
C446        H459   1.083       .  S
C447        C448   1.402       .  A
C447        H460   1.084       .  S
C448        C449   1.406       .  A
C448        C451   1.478   1_565  S
C449        C450   1.396       .  A
C449        H461   1.082       .  S
C450        H462   1.084       .  S
C451        C452   1.343   1_554  D
C451        H463   1.088       .  S
C452        C453   1.477       .  S
C452        H464   1.088   1_556  S
C453        C454   1.400       .  A
C453        C458   1.406       .  A
C454        C455   1.395       .  A
C454        H465   1.085       .  S
C455        C456   1.406       .  A
C455        H466   1.082       .  S
C456        C457   1.404       .  A
C457        C458   1.398       .  A
C457        H467   1.084       .  S
C458        H468   1.082       .  S
C469        C470   1.408       .  A
C469        C474   1.405       .  A
C470        C471   1.402       .  A
C470        H483   1.082       .  S
C471        C472   1.404       .  A
C471        H484   1.084       .  S
C472        C473   1.409       .  A
C472        C475   1.491       .  S
C473        C474   1.397       .  A
C473        H485   1.081       .  S
C474        H486   1.083       .  S
C475        C476   1.348   1_556  D
C475        H487   1.084       .  S
C476        C477   1.492       .  S
C476        H488   1.085   1_554  S
C477        C478   1.403       .  A
C477        C482   1.411       .  A
C478        C479   1.393       .  A
C478        H489   1.083       .  S
C479        C480   1.405       .  A
C479        H490   1.084       .  S
C480        C481   1.407       .  A
C481        C482   1.406       .  A
C481        H491   1.082       .  S
C482        H492   1.081       .  S
C493        C494   1.405       .  A
C493        C498   1.406       .  A
C494        C495   1.399       .  A
C494        H507   1.084       .  S
C495        C496   1.404       .  A
C495        H508   1.082       .  S
C496        C497   1.407       .  A
C496        C499   1.486       .  S
C497        C498   1.397       .  A
C497        H509   1.082       .  S
C498        H510   1.082       .  S
C499        C500   1.349       .  D
C499        H511   1.082       .  S
C500        C501   1.486       .  S
C500        H512   1.083       .  S
C501        C502   1.404       .  A
C501        C506   1.407       .  A
C502        C503   1.398       .  A
C502        H513   1.082       .  S
C503        C504   1.405       .  A
C503        H514   1.083       .  S
C504        C505   1.406       .  A
C505        C506   1.397       .  A
C505        H515   1.082       .  S
C506        H516   1.082       .  S
C517        C518   1.406       .  A
C517        C522   1.406       .  A
C518        C519   1.402       .  A
C518        H531   1.083       .  S
C519        C520   1.405       .  A
C519        H532   1.083       .  S
C520        C521   1.410       .  A
C520        C523   1.495       .  S
C521        C522   1.399       .  A
C521        H533   1.081       .  S
C522        H534   1.083       .  S
C523        C524   1.350       .  D
C523        H535   1.085       .  S
C524        C525   1.495       .  S
C524        H536   1.086       .  S
C525        C526   1.404       .  A
C525        C530   1.412       .  A
C526        C527   1.395       .  A
C526        H537   1.084       .  S
C527        C528   1.404       .  A
C527        H538   1.083       .  S
C528        C529   1.406       .  A
C529        C530   1.405       .  A
C529        H539   1.083       .  S
C530        H540   1.080       .  S
C541        C542   1.407       .  A
C541        C546   1.406       .  A
C542        C543   1.400       .  A
C542        H555   1.083       .  S
C543        C544   1.403       .  A
C543        H556   1.083       .  S
C544        C545   1.409       .  A
C544        C547   1.491       .  S
C545        C546   1.399       .  A
C545        H557   1.081       .  S
C546        H558   1.083       .  S
C547        C548   1.348       .  D
C547        H559   1.084       .  S
C548        C549   1.491       .  S
C548        H560   1.085       .  S
C549        C550   1.402       .  A
C549        C554   1.411       .  A
C550        C551   1.395       .  A
C550        H561   1.084       .  S
C551        C552   1.406       .  A
C551        H562   1.083       .  S
C552        C553   1.405       .  A
C553        C554   1.404       .  A
C553        H563   1.083       .  S
C554        H564   1.080       .  S
