geometry optimzed in LAMMPS
_audit_creation_date              2020-12-01 
_audit_creation_method            'lammps2cif' 
_symmetry_space_group_name_H-M    'P1' 
_symmetry_Int_Tables_number       1 
_symmetry_cell_setting            triclinic 
loop_ 
_symmetry_equiv_pos_as_xyz 
  x,y,z 
_cell_length_a                    45.16310219 
_cell_length_b                    45.29856614181132 
_cell_length_c                    25.9143043659481 
_cell_angle_alpha                 89.28634117185673 
_cell_angle_beta                  89.89236218868184 
_cell_angle_gamma                 120.31485043255321 
loop_ 
_atom_site_label 
_atom_site_type_symbol 
_atom_site_fract_x 
_atom_site_fract_y 
_atom_site_fract_z 
_atom_site_charge 
N1          N  0.59749919  0.59353505  0.15282026    -0.01300
C2          C  0.61353822  0.61883451  0.18772877     0.01300
C3          C  0.58954925  0.62312006  0.21467947    -0.21600
C4          C  0.55787028  0.59964215  0.19606367    -0.21800
C5          C  0.56342640  0.58156876  0.15848659     0.01200
H6          H  0.59440514  0.63978165  0.24705966     0.14900
H7          H  0.53332957  0.59421618  0.21158323     0.15000
N8          N  0.42805832  0.42371874  0.15866285    -0.01300
C9          C  0.40232981  0.40847950  0.19398004     0.01300
C10         C  0.39687260  0.43265568  0.21715405    -0.21600
C11         C  0.42010579  0.46377058  0.19546429    -0.21800
C12         C  0.43922926  0.45765760  0.16000363     0.01200
H13         H  0.37971775  0.42844569  0.24921246     0.14900
H14         H  0.42477440  0.48847916  0.20786602     0.15000
N15         N  0.47918005  0.37001168  0.00880151    -0.01300
C16         C  0.46364446  0.34359443  0.97569256     0.01300
C17         C  0.48778420  0.33743138  0.95336839    -0.21600
C18         C  0.51909550  0.36094741  0.97300895    -0.21800
C19         C  0.51326554  0.38106022  0.00647109     0.01200
H20         H  0.48344968  0.31963937  0.92283062     0.14900
H21         H  0.54376192  0.36514028  0.96016080     0.15000
N22         N  0.64536267  0.54160250  0.99496516    -0.01300
C23         C  0.67104831  0.55743813  0.95956813     0.01300
C24         C  0.67732688  0.53390254  0.93614063    -0.21600
C25         C  0.65474815  0.50251754  0.95775351    -0.21800
C26         C  0.63526219  0.50785547  0.99358923     0.01200
H27         H  0.69525373  0.53882658  0.90490401     0.14900
H28         H  0.65125746  0.47813395  0.94594240     0.15000
N29         N  0.64454270  0.03206107  0.16177637    -0.01300
C30         C  0.66694184  0.04120266  0.20146442     0.01300
C31         C  0.66922761  0.06909678  0.22631244    -0.21600
C32         C  0.64723593  0.07706823  0.20166674    -0.21800
C33         C  0.63195649  0.05364416  0.16273144     0.01200
H34         H  0.68373057  0.08100593  0.26068962     0.14900
H35         H  0.64051095  0.09566166  0.21418267     0.15000
N36         N  0.47214032  0.02341601  0.15209725    -0.01300
C37         C  0.45463026  0.03284248  0.18409135     0.01300
C38         C  0.47708644  0.06220837  0.20991416    -0.21600
C39         C  0.50950218  0.07124539  0.19334325    -0.21800
C40         C  0.50575026  0.04700531  0.15804827     0.01200
H41         H  0.47064731  0.07458018  0.23976495     0.14900
H42         H  0.53332299  0.09184517  0.20810001     0.15000
N43         N  0.43368901  0.92903453  0.98786020    -0.01300
C44         C  0.40878265  0.91932890  0.95188648     0.01300
C45         C  0.40461201  0.89099199  0.92611909    -0.21600
C46         C  0.42782554  0.88308100  0.94660187    -0.21800
C47         C  0.44561513  0.90699248  0.98404711     0.01200
H48         H  0.38812652  0.87887283  0.89350819     0.14900
H49         H  0.43328336  0.86392982  0.93245126     0.15000
N50         N  0.60614357  0.93583204  0.00030682    -0.01300
C51         C  0.62448783  0.92531754  0.97228317     0.01300
C52         C  0.60266737  0.89483335  0.94845764    -0.21600
C53         C  0.56986846  0.88622942  0.96216127    -0.21800
C54         C  0.57265924  0.91181490  0.99382382     0.01200
H55         H  0.60976377  0.88164536  0.92093434     0.13100
H56         H  0.54646689  0.86497565  0.94752134     0.15000
In57       In  0.79358372  0.74205581  0.34963669     1.36900
C58         C  0.79337001  0.73797829  0.45337201     0.79700
O59         O  0.82069774  0.71170041  0.35309952    -0.58700
O60         O  0.84543970  0.75908695  0.31309803    -0.49600
C61         C  0.74269219  0.69737479  0.28871593     0.72400
O62         O  0.74321693  0.69380069  0.33692666    -0.44500
C63         C  0.79164445  0.80035040  0.33801891     0.77100
O64         O  0.76822075  0.71783646  0.42622042    -0.56300
O65         O  0.81725349  0.79784638  0.32532183    -0.46400
O66         O  0.81841344  0.76039808  0.42726211    -0.52800
C67         C  0.84727969  0.73368182  0.32930245     0.87300
O68         O  0.76912086  0.72342936  0.27093074    -0.54700
O69         O  0.76694399  0.77286464  0.35571785    -0.58000
In70       In  0.03693559  0.73864225  0.34814341     1.36900
C71         C  0.03539112  0.73368690  0.45150764     0.79700
O72         O  0.09504612  0.76829622  0.34400686    -0.58700
O73         O  0.06886221  0.79458270  0.32628309    -0.49600
C74         C  0.03602332  0.69188955  0.28439653     0.72400
O75         O  0.04479109  0.69446935  0.33101314    -0.44500
C76         C  0.97548120  0.73292929  0.33236407     0.77100
O77         O  0.03236834  0.70997910  0.42298276    -0.56300
O78         O  0.00309454  0.75702737  0.31362844    -0.46400
O79         O  0.03929305  0.75957873  0.42691933    -0.52800
C80         C  0.09746248  0.79648112  0.33199330     0.87300
O81         O  0.02887013  0.71419147  0.26971766    -0.54700
O82         O  0.97936619  0.71130988  0.35806847    -0.58000
In83       In  0.79366787  0.98778450  0.36349529     1.36900
C84         C  0.79207946  0.98469265  0.46705612     0.79700
O85         O  0.76523292  0.92993076  0.35869661    -0.58700
O86         O  0.81697824  0.95707968  0.33464283    -0.49600
C87         C  0.74766367  0.99355699  0.30503519     0.72400
O88         O  0.74380391  0.98674238  0.35268908    -0.44500
C89         C  0.84954850  0.04981903  0.35152159     0.77100
O90         O  0.76841090  0.98440606  0.44086816    -0.56300
O91         O  0.84544346  0.02402370  0.32735815    -0.46400
O92         O  0.81590303  0.98594522  0.43997589    -0.52800
C93         C  0.79063776  0.92823485  0.34235222     0.87300
O94         O  0.77472277  0.99611965  0.28654003    -0.54700
O95         O  0.82443565  0.04393160  0.37994967    -0.58000
In96       In  0.03966646  0.23358721  0.36848571     1.36900
C97         C  0.03921133  0.23296577  0.47154385     0.79700
O98         O  0.98287812  0.20348609  0.38042294    -0.58700
O99         O  0.00560421  0.18198142  0.33372052    -0.49600
C100        C  0.03237907  0.27668403  0.30553059     0.72400
O101        O  0.03806871  0.28163619  0.35315254    -0.44500
C102        C  0.10092589  0.23877844  0.35469620     0.77100
O103        O  0.04510605  0.25904408  0.44516465    -0.56300
O104        O  0.07296992  0.21244762  0.34375647    -0.46400
O105        O  0.03316330  0.20747418  0.44491259    -0.52800
C106        C  0.97849375  0.17834145  0.35413327     0.87300
O107        O  0.03263442  0.25067506  0.28944929    -0.54700
O108        O  0.09760265  0.26331293  0.36960573    -0.58000
In109      In  0.28499400  0.23278298  0.37142327     1.36900
C110        C  0.28815289  0.23250038  0.47433678     0.79700
O111        O  0.25512305  0.25975913  0.38310325    -0.58700
O112        O  0.23177925  0.21358768  0.34176408    -0.49600
C113        C  0.32870311  0.28228873  0.30674750     0.72400
O114        O  0.33319727  0.28237726  0.35472460    -0.44500
C115        C  0.28894091  0.17678239  0.35394728     0.77100
O116        O  0.31169431  0.25546510  0.44656716    -0.56300
O117        O  0.26271974  0.17889743  0.34458798    -0.46400
O118        O  0.26328190  0.21013033  0.44912755    -0.52800
C119        C  0.22881039  0.23765906  0.35997816     0.87300
O120        O  0.30231155  0.25584082  0.29127732    -0.54700
O121        O  0.31403473  0.20420693  0.36978910    -0.58000
In122      In  0.28172110  0.98626279  0.35538934     1.36900
C123        C  0.28470605  0.98358788  0.45826284     0.79700
O124        O  0.30987703  0.04335131  0.36672800    -0.58700
O125        O  0.26165844  0.02054412  0.33013094    -0.49600
C126        C  0.32888860  0.98946715  0.28945089     0.72400
O127        O  0.32533462  0.97812337  0.33506460    -0.44500
C128        C  0.22562136  0.92623511  0.33467290     0.77100
O129        O  0.31000368  0.99077980  0.42929743    -0.56300
O130        O  0.22715513  0.95463252  0.32833029    -0.46400
O131        O  0.25799415  0.97735179  0.43426256    -0.52800
C132        C  0.28676748  0.04761486  0.34705412     0.87300
O133        O  0.30748726  0.99835826  0.27706199    -0.54700
O134        O  0.25335799  0.92881320  0.34962632    -0.58000
In135      In  0.79529974  0.73186231  0.78213219     1.36900
C136        C  0.79380063  0.73142951  0.67821981     0.79700
O137        O  0.76670340  0.76061922  0.78562999    -0.58700
O138        O  0.81847219  0.78633691  0.80843923    -0.49600
C139        C  0.75109244  0.68318346  0.84833611     0.72400
O140        O  0.74394198  0.68547342  0.80196542    -0.44500
C141        C  0.85115376  0.72709769  0.79639200     0.77100
O142        O  0.77017728  0.70827328  0.70571392    -0.56300
O143        O  0.84785866  0.75116738  0.81386231    -0.46400
O144        O  0.81783236  0.75427285  0.70409261    -0.52800
C145        C  0.79193904  0.78816629  0.80069081     0.87300
O146        O  0.78050517  0.70652336  0.86117292    -0.54700
O147        O  0.82524498  0.70484091  0.77250627    -0.58000
In148      In  0.04023430  0.73299181  0.77848687     1.36900
C149        C  0.03704785  0.73075488  0.67558764     0.79700
O150        O  0.98264468  0.70287347  0.78492769    -0.58700
O151        O  0.00801588  0.75494181  0.80533808    -0.49600
C152        C  0.04495371  0.68776756  0.84056536     0.72400
O153        O  0.03314694  0.68095587  0.79549597    -0.44500
C154        C  0.10151283  0.78962403  0.78729834     0.77100
O155        O  0.04396846  0.71144598  0.70209097    -0.56300
O156        O  0.07568699  0.78434300  0.81367663    -0.46400
O157        O  0.03183421  0.75086814  0.70205931    -0.52800
C158        C  0.97972606  0.72783986  0.79882446     0.87300
O159        O  0.05338777  0.71754035  0.85443367    -0.54700
O160        O  0.09591161  0.76556741  0.75754138    -0.58000
In161      In  0.79775135  0.97781234  0.79489415     1.36900
C162        C  0.79444638  0.97997085  0.69155916     0.79700
O163        O  0.82716060  0.03567656  0.79652660    -0.58700
O164        O  0.85271232  0.00977735  0.82024121    -0.49600
C165        C  0.74970872  0.97276187  0.86166251     0.72400
O166        O  0.75023685  0.97990931  0.81440605    -0.44500
C167        C  0.79313067  0.91675781  0.80574701     0.77100
O168        O  0.77172243  0.97924512  0.72081507    -0.56300
O169        O  0.81769678  0.94392683  0.82332784    -0.46400
O170        O  0.81848251  0.97953597  0.71546100    -0.52800
C171        C  0.85485285  0.03821108  0.81160558     0.87300
O172        O  0.77451139  0.96917187  0.87523364    -0.54700
O173        O  0.77044348  0.92084210  0.78406202    -0.58000
In174      In  0.04545794  0.22402093  0.79847452     1.36900
C175        C  0.04467473  0.22855717  0.69519664     0.79700
O176        O  0.10315147  0.25132793  0.78944831    -0.58700
O177        O  0.07823115  0.20310433  0.82730621    -0.49600
C178        C  0.04823030  0.27041973  0.86512313     0.72400
O179        O  0.04107202  0.26985572  0.81803524    -0.44500
C180        C  0.98433820  0.16708630  0.81393671     0.77100
O181        O  0.04935851  0.25272761  0.72409271    -0.56300
O182        O  0.01255296  0.16880584  0.82311321    -0.46400
O183        O  0.04110289  0.20263394  0.71928848    -0.52800
C184        C  0.10623747  0.22802101  0.81138007     0.87300
O185        O  0.05264937  0.24613304  0.87890759    -0.54700
O186        O  0.98741252  0.19518248  0.79943611    -0.58000
In187      In  0.29049649  0.22246090  0.80083775     1.36900
C188        C  0.29195290  0.22611543  0.69782316     0.79700
O189        O  0.31793827  0.19272191  0.79475056    -0.58700
O190        O  0.26901200  0.16851121  0.83062606    -0.49600
C191        C  0.33934226  0.26717423  0.86366173     0.72400
O192        O  0.34192142  0.26852251  0.81519071    -0.44500
C193        C  0.23430139  0.22722053  0.81464087     0.77100
O194        O  0.31263297  0.25065411  0.72536229    -0.56300
O195        O  0.23672302  0.20222571  0.83109928    -0.46400
O196        O  0.27126990  0.19967859  0.72319843    -0.52800
C197        C  0.29420739  0.16590883  0.81583654     0.87300
O198        O  0.31102572  0.24316506  0.88046898    -0.54700
O199        O  0.26130357  0.25043380  0.79333665    -0.58000
In200      In  0.28864470  0.97833275  0.78456007     1.36900
C201        C  0.29000275  0.98356266  0.68191312     0.79700
O202        O  0.25711592  0.92297535  0.76336382    -0.58700
O203        O  0.23638225  0.94201920  0.81819978    -0.49600
C204        C  0.33187016  0.96953875  0.84484173     0.72400
O205        O  0.33783872  0.97790345  0.79774493    -0.44500
C206        C  0.29363886  0.03802680  0.80844935     0.77100
O207        O  0.31389073  0.98352665  0.70715853    -0.56300
O208        O  0.26706098  0.00945787  0.81676339    -0.46400
O209        O  0.26623618  0.98195949  0.70956230    -0.52800
C210        C  0.23189801  0.91688654  0.79177025     0.87300
O211        O  0.30435424  0.96688556  0.86128000    -0.54700
O212        O  0.31833920  0.03592746  0.78999847    -0.58000
N213        N  0.08479751  0.41325306  0.99933787    -0.01300
C214        C  0.09639790  0.39530826  0.97294585     0.01300
C215        C  0.12762374  0.41747491  0.94982104    -0.21600
C216        C  0.13551069  0.45002975  0.96224286    -0.21800
C217        C  0.10873610  0.44686953  0.99240460     0.01200
H218        H  0.14171355  0.41080845  0.92314999     0.14900
H219        H  0.15702186  0.47349393  0.94721280     0.15000
N220        N  0.08229763  0.58044831  0.97637650    -0.01300
C221        C  0.08947866  0.60376502  0.93791942     0.01300
C222        C  0.11656817  0.60757649  0.90807177    -0.21600
C223        C  0.12641192  0.58580080  0.92862625    -0.21800
C224        C  0.10487918  0.56923902  0.97025137     0.01200
H225        H  0.12712209  0.62351096  0.87382168     0.14900
H226        H  0.14559276  0.58079588  0.91270950     0.15000
N227        N  0.98603035  0.37283172  0.16104906    -0.01300
C228        C  0.97632951  0.34861843  0.19879438     0.01300
C229        C  0.94810408  0.34504585  0.22514996    -0.21600
C230        C  0.94026400  0.36794599  0.20309956    -0.21800
C231        C  0.96413961  0.38512357  0.16407958     0.01200
H232        H  0.93612355  0.32932107  0.25917987     0.14900
H233        H  0.92123507  0.37371383  0.21736641     0.15000
N234        N  0.99644019  0.54605308  0.15412115    -0.01300
C235        C  0.99229433  0.56423490  0.19190389     0.01300
C236        C  0.96658993  0.54247469  0.22574515    -0.21600
C237        C  0.95466913  0.50985118  0.20864726    -0.21800
C238        C  0.97354895  0.51264727  0.16492242     0.01200
H239        H  0.95844578  0.54953847  0.26045324     0.14900
H240        H  0.93604733  0.48647439  0.22820294     0.15000
C241        C  0.00174258  0.44842997  0.14859485     0.25800
C242        C  0.96984501  0.41826758  0.14249949    -0.22400
C243        C  0.94111530  0.42129938  0.13020627     0.20700
C244        C  0.94318735  0.45319159  0.13142269     0.25700
C245        C  0.97418995  0.48270333  0.14377191    -0.22300
C246        C  0.00387072  0.48034152  0.14911183     0.20600
F247        F  0.03397971  0.50806797  0.16273655    -0.12300
F248        F  0.02998877  0.44708525  0.16192404    -0.14600
F249        F  0.91413913  0.45477967  0.12572098    -0.14600
F250        F  0.91009749  0.39286420  0.12276858    -0.12300
C251        C  0.07498952  0.58319611  0.07001648     0.25800
C252        C  0.06046464  0.57408869  0.02067980    -0.22400
C253        C  0.02477082  0.55851028  0.01562346     0.20700
C254        C  0.00383809  0.55050181  0.05961546     0.25700
C255        C  0.01834017  0.55863797  0.10911115    -0.22300
C256        C  0.05412044  0.57587440  0.11386080     0.20600
F257        F  0.06869069  0.58373399  0.16114101    -0.12300
F258        F  0.10951071  0.59894784  0.07556515    -0.14600
F259        F  0.96926327  0.53420814  0.05422624    -0.14600
F260        F  0.01016675  0.54981822  0.96841568    -0.12300
C261        C  0.04611588  0.39700788  0.13192616     0.25800
C262        C  0.01098544  0.38019085  0.12092158    -0.22400
C263        C  0.00022203  0.37110163  0.06978388     0.20700
C264        C  0.02434811  0.38058323  0.02966313     0.25700
C265        C  0.05953039  0.39990760  0.04022634    -0.22300
C266        C  0.07020635  0.40731489  0.09177472     0.20600
F267        F  0.10413403  0.42501641  0.10295178    -0.12300
F268        F  0.05706626  0.40516440  0.18119404    -0.14600
F269        F  0.01339737  0.37218114  0.98048259    -0.14600
F270        F  0.96625240  0.35305452  0.05898594    -0.12300
C271        C  0.13128072  0.53830709  0.01221561     0.25800
C272        C  0.10185514  0.53769414  0.99325362    -0.22400
C273        C  0.07252328  0.50598121  0.98334139     0.20700
C274        C  0.07356293  0.47563151  0.98797472     0.25700
C275        C  0.10391865  0.47645258  0.00308957    -0.22300
C276        C  0.13225274  0.50797751  0.01739374     0.20600
F277        F  0.16192827  0.50977891  0.03227691    -0.12300
F278        F  0.16012795  0.56865254  0.02135403    -0.14600
F279        F  0.04641027  0.44626478  0.97093394    -0.14600
F280        F  0.04440778  0.50474771  0.96235034    -0.12300
C281        C  0.26511651  0.10251756  0.83214554     0.25800
C282        C  0.29519616  0.13370508  0.82055276    -0.22400
C283        C  0.32564278  0.13338099  0.81008547     0.20700
C284        C  0.32555457  0.10243452  0.80831482     0.25700
C285        C  0.29500299  0.07107736  0.81703782    -0.22300
C286        C  0.26501421  0.07160242  0.83038391     0.20600
F287        F  0.23504078  0.04206626  0.83973605    -0.12300
F288        F  0.23524043  0.10161841  0.84296319    -0.14600
F289        F  0.35530167  0.10324666  0.79681154    -0.14600
F290        F  0.35551336  0.16300359  0.80062497    -0.12300
C291        C  0.05744997  0.35415986  0.90864069     0.25800
C292        C  0.07535127  0.35971601  0.95506936    -0.22400
C293        C  0.08001655  0.33354146  0.97563495     0.20700
C294        C  0.06852275  0.30292831  0.94866140     0.25700
C295        C  0.05317985  0.29859172  0.89976813    -0.22300
C296        C  0.04634696  0.32394535  0.88139836     0.20600
F297        F  0.03081942  0.32058460  0.83527795    -0.12300
F298        F  0.05357750  0.37948231  0.88711292    -0.14600
F299        F  0.07455938  0.27866752  0.96879354    -0.14600
F300        F  0.09794666  0.33867260  0.01985350    -0.12300
C301        C  0.20138505  0.25785437  0.80082581     0.25800
C302        C  0.20219967  0.22867479  0.81822380    -0.22400
C303        C  0.17157547  0.20027245  0.83668874     0.20700
C304        C  0.14072207  0.20054503  0.83596760     0.25700
C305        C  0.13961532  0.22917553  0.81661875    -0.22300
C306        C  0.17052296  0.25818656  0.80034248     0.20600
F307        F  0.17099418  0.28692007  0.78347485    -0.12300
F308        F  0.23039318  0.28605227  0.78348480    -0.14600
F309        F  0.11175865  0.17229847  0.85326898    -0.14600
F310        F  0.17112272  0.17168287  0.85426048    -0.12300
C311        C  0.91814443  0.07246631  0.82980559     0.25800
C312        C  0.88741417  0.07152552  0.81666372    -0.22400
C313        C  0.88863970  0.10264619  0.80540945     0.20700
C314        C  0.91987923  0.13373373  0.80583477     0.25700
C315        C  0.95072996  0.13455656  0.81771891    -0.22300
C316        C  0.94934104  0.10351444  0.83026423     0.20600
F317        F  0.97836529  0.10289731  0.84160519    -0.12300
F318        F  0.91834539  0.04319817  0.84093446    -0.14600
F319        F  0.91989242  0.16293450  0.79333179    -0.14600
F320        F  0.85969372  0.10307224  0.79278966    -0.12300
C321        C  0.07053117  0.67470134  0.91777743     0.25800
C322        C  0.05015458  0.66349202  0.87307677    -0.22400
C323        C  0.03766063  0.62966603  0.85690700     0.20700
C324        C  0.04756036  0.60861106  0.88226469     0.25700
C325        C  0.07001820  0.62083172  0.92423987    -0.22300
C326        C  0.08052978  0.65354681  0.94287960     0.20600
F327        F  0.10287693  0.66606144  0.98264714    -0.12300
F328        F  0.08302959  0.70701885  0.93494197    -0.14600
F329        F  0.03742981  0.57714656  0.86321043    -0.14600
F330        F  0.01753151  0.61754116  0.81461314    -0.12300
C331        C  0.19150200  0.86053887  0.75161599     0.25800
C332        C  0.19936101  0.88347616  0.79246775    -0.22400
C333        C  0.17507369  0.87485613  0.83244512     0.20700
C334        C  0.14342732  0.84426326  0.83118098     0.25700
C335        C  0.13542763  0.82152595  0.79000331    -0.22300
C336        C  0.15996959  0.82995148  0.75043637     0.20600
F337        F  0.15306948  0.80915781  0.70941327    -0.12300
F338        F  0.21377993  0.86822228  0.71155956    -0.14600
F339        F  0.12069304  0.83691687  0.87044170    -0.14600
F340        F  0.18192959  0.89601476  0.87295395    -0.12300
C341        C  0.81852580  0.84933800  0.82873155     0.25800
C342        C  0.79094721  0.82024606  0.80648656    -0.22400
C343        C  0.76325750  0.82275279  0.78679722     0.20700
C344        C  0.76357789  0.85378923  0.78782017     0.25700
C345        C  0.79158240  0.88317938  0.80866836    -0.22300
C346        C  0.81881854  0.88041234  0.82988441     0.20600
F347        F  0.84626771  0.90797150  0.85071778    -0.12300
F348        F  0.84558290  0.84797701  0.84876975    -0.14600
F349        F  0.73667727  0.85511099  0.76710365    -0.14600
F350        F  0.73624501  0.79545187  0.76467997    -0.12300
C351        C  0.91558628  0.69673762  0.78863513     0.25800
C352        C  0.94608478  0.72605912  0.80400161    -0.22400
C353        C  0.94442237  0.75469965  0.82040352     0.20700
C354        C  0.91340716  0.75459975  0.81940385     0.25700
C355        C  0.88321101  0.72583642  0.80199685    -0.22300
C356        C  0.88451989  0.69663508  0.78768062     0.20600
F357        F  0.85584095  0.66804722  0.77188800    -0.12300
F358        F  0.91586827  0.66841400  0.77282441    -0.14600
F359        F  0.91336378  0.78330157  0.83376801    -0.14600
F360        F  0.97302754  0.78334031  0.83621309    -0.12300
C361        C  0.31681606  0.99109037  0.54099158     0.25800
C362        C  0.28618744  0.98310944  0.51548385    -0.22400
C363        C  0.25700028  0.97544275  0.54532611     0.20700
C364        C  0.25851545  0.97625365  0.59917464     0.25700
C365        C  0.28912464  0.98427414  0.62471221    -0.22300
C366        C  0.31827424  0.99173068  0.59500024     0.20600
F367        F  0.34839918  0.00003353  0.61810634    -0.12300
F368        F  0.34548136  0.99829929  0.51380746    -0.14600
F369        F  0.22966495  0.96861931  0.62622824    -0.14600
F370        F  0.22671483  0.96694665  0.52256019    -0.12300
C371        C  0.31892645  0.25466193  0.61272459     0.25800
C372        C  0.29137225  0.22811962  0.64068359    -0.22400
C373        C  0.26271418  0.20352976  0.61350041     0.20700
C374        C  0.26170324  0.20517102  0.55972899     0.25700
C375        C  0.28935434  0.23146129  0.53156116    -0.22300
C376        C  0.31795159  0.25630374  0.55872448     0.20600
F377        F  0.34511474  0.28218064  0.53317021    -0.12300
F378        F  0.34707568  0.27885501  0.63749586    -0.14600
F379        F  0.23337126  0.18089680  0.53539429    -0.14600
F380        F  0.23515985  0.17804510  0.63895177    -0.12300
C381        C  0.31902614  0.14275707  0.36082284     0.25800
C382        C  0.28949050  0.14441359  0.34870546    -0.22400
C383        C  0.25961722  0.11419480  0.33427147     0.20700
C384        C  0.25917345  0.08314343  0.33224067     0.25700
C385        C  0.28838631  0.08124449  0.34547045    -0.22300
C386        C  0.31842555  0.11150621  0.35951189     0.20600
F387        F  0.34723326  0.11093092  0.37257675    -0.12300
F388        F  0.34839515  0.17122613  0.37500127    -0.14600
F389        F  0.22957707  0.05468067  0.31883282    -0.14600
F390        F  0.23027206  0.11430395  0.32341696    -0.12300
C391        C  0.00702124  0.28627952  0.22489262     0.25800
C392        C  0.02378905  0.29830126  0.27249634    -0.22400
C393        C  0.02858302  0.32946302  0.29115866     0.20700
C394        C  0.01519527  0.34706191  0.26457136     0.25700
C395        C  0.99685705  0.33404204  0.21879499    -0.22300
C396        C  0.99342518  0.30395682  0.19847892     0.20600
F397        F  0.97484343  0.29045777  0.15512460    -0.12300
F398        F  0.00156379  0.25619368  0.20573095    -0.14600
F399        F  0.01839786  0.37596083  0.28513415    -0.14600
F400        F  0.04481383  0.34218361  0.33650126    -0.12300
C401        C  0.05366001  0.26243237  0.55732626     0.25800
C402        C  0.03976280  0.23210682  0.52882099    -0.22400
C403        C  0.02731272  0.20074546  0.55559142     0.20700
C404        C  0.02921928  0.19975106  0.60937201     0.25700
C405        C  0.04304317  0.23002315  0.63800121    -0.22300
C406        C  0.05505272  0.26137658  0.61135731     0.20600
F407        F  0.06897660  0.29119484  0.63740988    -0.12300
F408        F  0.06674706  0.29327215  0.53293935    -0.14600
F409        F  0.01712259  0.16890736  0.63337366    -0.14600
F410        F  0.01306423  0.17078284  0.52981760    -0.12300
C411        C  0.16392528  0.26716637  0.37487767     0.25800
C412        C  0.13445282  0.24007006  0.35245276    -0.22400
C413        C  0.13678989  0.21294799  0.33086553     0.20700
C414        C  0.16754668  0.21256084  0.33240074     0.25700
C415        C  0.19684359  0.23927541  0.35566821    -0.22300
C416        C  0.19475274  0.26677926  0.37643385     0.20600
F417        F  0.22234575  0.29311217  0.39922367    -0.12300
F418        F  0.16276532  0.29361160  0.39690790    -0.14600
F419        F  0.16827283  0.18548985  0.31192072    -0.14600
F420        F  0.10910002  0.18632887  0.30878143    -0.12300
C421        C  0.82044319  0.98549976  0.55065290     0.25800
C422        C  0.79232083  0.98381221  0.52454414    -0.22400
C423        C  0.76488193  0.98139618  0.55403872     0.20700
C424        C  0.76540231  0.98012697  0.60822788     0.25700
C425        C  0.79340209  0.98131798  0.63415816    -0.22300
C426        C  0.82087111  0.98403804  0.60453371     0.20600
F427        F  0.84851431  0.98543540  0.62758091    -0.12300
F428        F  0.84795090  0.98882995  0.52413769    -0.14600
F429        F  0.73837141  0.97758152  0.63516658    -0.14600
F430        F  0.73749028  0.98030925  0.53060665    -0.12300
C431        C  0.90795887  0.09030288  0.31326173     0.25800
C432        C  0.88151900  0.08378565  0.34863689    -0.22400
C433        C  0.88667766  0.10956744  0.38346140     0.20700
C434        C  0.91776925  0.14055967  0.38404764     0.25700
C435        C  0.94456808  0.14670239  0.34977160    -0.22300
C436        C  0.93908867  0.12148531  0.31368428     0.20600
F437        F  0.96395771  0.12679809  0.27903041    -0.12300
F438        F  0.90399766  0.06633079  0.27868259    -0.14600
F439        F  0.92203116  0.16397811  0.41989605    -0.14600
F440        F  0.86213228  0.10443288  0.41861548    -0.12300
C441        C  0.01175859  0.65425615  0.20675131     0.25800
C442        C  0.03239322  0.66367947  0.25118439    -0.22400
C443        C  0.04605403  0.64317649  0.26714019     0.20700
C444        C  0.03629217  0.61219581  0.24280237     0.25700
C445        C  0.01319295  0.60132893  0.20150446    -0.22300
C446        C  0.00231073  0.62331573  0.18212370     0.20600
F447        F  0.97965175  0.61314763  0.14270797    -0.12300
F448        F  0.99802435  0.67323909  0.19000929    -0.14600
F449        F  0.04673180  0.59114693  0.26287836    -0.14600
F450        F  0.06702713  0.65188231  0.30859890    -0.12300
C451        C  0.03218798  0.75669429  0.53747494     0.25800
C452        C  0.03456286  0.73174362  0.50885486    -0.22400
C453        C  0.03661964  0.70559054  0.53570216     0.20700
C454        C  0.03714926  0.70498416  0.58986268     0.25700
C455        C  0.03554136  0.73045174  0.61830982    -0.22300
C456        C  0.03271401  0.75609393  0.59136053     0.20600
F457        F  0.03089903  0.78110102  0.61701260    -0.12300
F458        F  0.02919838  0.78184699  0.51339418    -0.14600
F459        F  0.03917609  0.67939573  0.61435063    -0.14600
F460        F  0.03864583  0.68083315  0.50968012    -0.12300
C461        C  0.16210036  0.83042707  0.33681782     0.25800
C462        C  0.13081291  0.82923147  0.32708346    -0.22400
C463        C  0.13158830  0.86009767  0.31545345     0.20700
C464        C  0.16252031  0.89139981  0.31583434     0.25700
C465        C  0.19357633  0.89274548  0.32782014    -0.22300
C466        C  0.19309498  0.86175569  0.33689474     0.20600
F467        F  0.22252827  0.86168447  0.34721041    -0.12300
F468        F  0.16275651  0.80138263  0.34782817    -0.14600
F469        F  0.16175265  0.92050947  0.30594163    -0.14600
F470        F  0.10222655  0.86028162  0.30511215    -0.12300
C471        C  0.82318090  0.75767180  0.53878133     0.25800
C472        C  0.79354212  0.73561457  0.51085482    -0.22400
C473        C  0.76410614  0.71145273  0.53856732     0.20700
C474        C  0.76418285  0.70973037  0.59272848     0.25700
C475        C  0.79365998  0.73221975  0.62062582    -0.22300
C476        C  0.82317923  0.75611261  0.59282097     0.20600
F477        F  0.85235074  0.77812206  0.61785191    -0.12300
F478        F  0.85242468  0.78091377  0.51392621    -0.14600
F479        F  0.73509412  0.68638011  0.61776818    -0.14600
F480        F  0.73496522  0.68958629  0.51336693    -0.12300
C481        C  0.82088208  0.89521240  0.32592360     0.25800
C482        C  0.79019125  0.89535082  0.33538420    -0.22400
C483        C  0.75957412  0.86370984  0.34164598     0.20700
C484        C  0.75988701  0.83288948  0.34076591     0.25700
C485        C  0.79085899  0.83286014  0.33400913    -0.22300
C486        C  0.82124995  0.86442091  0.32562277     0.20600
F487        F  0.85173445  0.86574934  0.31908471    -0.12300
F488        F  0.85096169  0.92499930  0.31868698    -0.14600
F489        F  0.72975445  0.80304109  0.34709414    -0.14600
F490        F  0.72922637  0.86247407  0.34941571    -0.12300
C491        C  0.90792762  0.75640621  0.29743529     0.25800
C492        C  0.87868093  0.73089658  0.32388052    -0.22400
C493        C  0.88079368  0.70419921  0.34887536     0.20700
C494        C  0.91191878  0.70436677  0.35053672     0.25700
C495        C  0.94162479  0.73083285  0.32626567    -0.22300
C496        C  0.93888678  0.75620377  0.29823347     0.20600
F497        F  0.96641714  0.78145610  0.27244779    -0.12300
F498        F  0.90694578  0.78217497  0.27168299    -0.14600
F499        F  0.91305096  0.67899463  0.37728869    -0.14600
F500        F  0.85300038  0.67833867  0.37333197    -0.12300
C501        C  0.69765896  0.97722240  0.88175486     0.25800
C502        C  0.72136962  0.96736177  0.89714995    -0.22400
C503        C  0.71554967  0.94918393  0.94423503     0.20700
C504        C  0.68516454  0.93843226  0.97257674     0.25700
C505        C  0.66059703  0.94643832  0.95517927    -0.22300
C506        C  0.66766344  0.96690913  0.91055530     0.20600
F507        F  0.64375440  0.97389319  0.89183365    -0.12300
F508        F  0.70237990  0.99510178  0.83707105    -0.14600
F509        F  0.67839705  0.91777629  0.01466358    -0.14600
F510        F  0.73780738  0.93932532  0.96073510    -0.12300
C511        C  0.40637155  0.95878875  0.88724702     0.25800
C512        C  0.39328651  0.93929348  0.93290183    -0.22400
C513        C  0.36135219  0.93245421  0.95196298     0.20700
C514        C  0.34213955  0.94392214  0.92476674     0.25700
C515        C  0.35434944  0.96190471  0.87739532    -0.22300
C516        C  0.38709652  0.96987757  0.85958144     0.20600
F517        F  0.39984375  0.98691760  0.81407510    -0.12300
F518        F  0.43691067  0.96498540  0.86752123    -0.14600
F519        F  0.31048000  0.93514219  0.94291618    -0.14600
F520        F  0.34762640  0.91244544  0.99478555    -0.12300
C521        C  0.51296087  0.88718035  0.02781183     0.25800
C522        C  0.54273204  0.91545051  0.00719171    -0.22400
C523        C  0.54092176  0.94374135  0.98828427     0.20700
C524        C  0.50935531  0.94263464  0.98649880     0.25700
C525        C  0.47911721  0.91308798  0.00303248    -0.22300
C526        C  0.48138706  0.88593801  0.02552930     0.20600
F527        F  0.45251893  0.85696797  0.04114036    -0.12300
F528        F  0.51399939  0.85950459  0.04610669    -0.14600
F529        F  0.50773185  0.96851327  0.96224579    -0.14600
F530        F  0.56866874  0.97049367  0.96523243    -0.12300
C531        C  0.37874422  0.98130650  0.27004913     0.25800
C532        C  0.35704627  0.99371865  0.25473426    -0.22400
C533        C  0.36498262  0.01348680  0.20889588     0.20700
C534        C  0.39531630  0.02282963  0.18144197     0.25700
C535        C  0.41814622  0.01261893  0.19919132    -0.22300
C536        C  0.40920665  0.99108081  0.24291982     0.20600
F537        F  0.43179910  0.98259112  0.26268936    -0.12300
F538        F  0.37186427  0.96174379  0.31348314    -0.14600
F539        F  0.40405424  0.04462130  0.14035748    -0.14600
F540        F  0.34501243  0.02628077  0.19296153    -0.12300
C541        C  0.44277312  0.96384472  0.12125285     0.25800
C542        C  0.45876653  0.99908490  0.11099362    -0.22400
C543        C  0.46508056  0.01092926  0.05943356     0.20700
C544        C  0.45612818  0.98799348  0.01871169     0.25700
C545        C  0.44118033  0.95285262  0.02899290    -0.22300
C546        C  0.43431184  0.94092284  0.08054261     0.20600
F547        F  0.41968959  0.90697378  0.09127995    -0.12300
F548        F  0.43690947  0.95182422  0.17061800    -0.14600
F549        F  0.46349800  0.00019657  0.96948693    -0.14600
F550        F  0.48077000  0.04497617  0.04882912    -0.12300
C551        C  0.69459272  0.99804256  0.29908702     0.25800
C552        C  0.72334769  0.99982172  0.27457311    -0.22400
C553        C  0.73004733  0.01064844  0.22232632     0.20700
C554        C  0.70993020  0.02173728  0.19661226     0.25700
C555        C  0.68278557  0.02197182  0.22251554    -0.22300
C556        C  0.67471347  0.00914336  0.27339932     0.20600
F557        F  0.64849087  0.00907659  0.29929987    -0.12300
F558        F  0.68658674  0.98721867  0.34895320    -0.14600
F559        F  0.71857443  0.03469369  0.14784890    -0.14600
F560        F  0.75713478  0.01228872  0.19687399    -0.12300
C561        C  0.63618100  0.99567502  0.03000893     0.25800
C562        C  0.61890905  0.96048350  0.04103103    -0.22400
C563        C  0.61244106  0.94915149  0.09287639     0.20700
C564        C  0.62216420  0.97261293  0.13305557     0.25700
C565        C  0.63810890  0.00774205  0.12184443    -0.22300
C566        C  0.64558844  0.01910091  0.07012600     0.20600
F567        F  0.66164781  0.05305613  0.05865734    -0.12300
F568        F  0.64257059  0.00727935  0.98045950    -0.14600
F569        F  0.61447184  0.96100736  0.18257399    -0.14600
F570        F  0.59605325  0.91517774  0.10430071    -0.12300
C571        C  0.56874484  0.01632533  0.15693788     0.25800
C572        C  0.59869373  0.04643203  0.14116638    -0.22400
C573        C  0.59580169  0.07337563  0.11922240     0.20700
C574        C  0.56412527  0.07195516  0.11908484     0.25700
C575        C  0.53497708  0.04349720  0.14058448    -0.22300
C576        C  0.53710601  0.01493416  0.15689294     0.20600
F577        F  0.50980812  0.98772940  0.17996688    -0.12300
F578        F  0.57074662  0.99029887  0.17983825    -0.14600
F579        F  0.56253476  0.09970237  0.10269114    -0.14600
F580        F  0.62428996  0.10251410  0.10306701    -0.12300
C581        C  0.71988445  0.61755256  0.95823390     0.25800
C582        C  0.68716447  0.59328548  0.94102054    -0.22400
C583        C  0.67398137  0.60072437  0.89688149     0.20700
C584        C  0.69387534  0.63115420  0.86874822     0.25700
C585        C  0.72774358  0.65447848  0.88361029    -0.22300
C586        C  0.74002632  0.64797795  0.92995177     0.20600
F587        F  0.77245113  0.66972636  0.94594587    -0.12300
F588        F  0.73337332  0.61051047  0.00016026    -0.14600
F589        F  0.68059606  0.63677298  0.82527312    -0.14600
F590        F  0.64285093  0.57713395  0.87849923    -0.12300
C591        C  0.36987219  0.28260317  0.94936431     0.25800
C592        C  0.36806900  0.29089032  0.89719138    -0.22400
C593        C  0.39599311  0.32054799  0.87542308     0.20700
C594        C  0.42611936  0.33948708  0.90330955     0.25700
C595        C  0.42893609  0.32959708  0.95379472    -0.22300
C596        C  0.40020047  0.30188150  0.97744037     0.20600
F597        F  0.40236826  0.29197266  0.02625472    -0.12300
F598        F  0.34335069  0.25444451  0.97200855    -0.14600
F599        F  0.45356832  0.36628285  0.87966793    -0.14600
F600        F  0.39487504  0.33035236  0.82606557    -0.12300
C601        C  0.60262368  0.45072838  0.03760546     0.25800
C602        C  0.60281889  0.47928607  0.01533479    -0.22400
C603        C  0.57141308  0.47655697  0.00184304     0.20700
C604        C  0.54096620  0.44487825  0.00476836     0.25700
C605        C  0.54133978  0.41542053  0.02176143    -0.22300
C606        C  0.57211661  0.41907107  0.04093597     0.20600
F607        F  0.57323341  0.39125198  0.05831886    -0.12300
F608        F  0.63253718  0.45279607  0.05176291    -0.14600
F609        F  0.51231863  0.44234799  0.98380211    -0.14600
F610        F  0.57070842  0.50324236  0.97879714    -0.12300
C611        C  0.38146458  0.33947893  0.29273228     0.25800
C612        C  0.35143221  0.31183673  0.27261771    -0.22400
C613        C  0.34167854  0.31466780  0.22185178     0.20700
C614        C  0.35990272  0.34558387  0.19386966     0.25700
C615        C  0.38827339  0.37371145  0.21591547    -0.22300
C616        C  0.39960172  0.37004668  0.26464002     0.20600
F617        F  0.42721202  0.39697863  0.28639929    -0.12300
F618        F  0.39238737  0.33771741  0.34084450    -0.14600
F619        F  0.34846827  0.34882068  0.14691890    -0.14600
F620        F  0.31328233  0.28841714  0.20056123    -0.12300
C621        C  0.43285978  0.41029430  0.06854773     0.25800
C622        C  0.43816433  0.40720542  0.12132243    -0.22400
C623        C  0.45443034  0.38914389  0.13654607     0.20700
C624        C  0.46695121  0.37603941  0.09926955     0.25700
C625        C  0.46288341  0.38034825  0.04639967    -0.22300
C626        C  0.44476895  0.39658036  0.03129789     0.20600
F627        F  0.44030276  0.40076405  0.98054114    -0.12300
F628        F  0.41649835  0.42708231  0.05329314    -0.14600
F629        F  0.48354436  0.35948255  0.11455166    -0.14600
F630        F  0.45965016  0.38568497  0.18725029    -0.12300
C631        C  0.65559217  0.62312899  0.25287917     0.25800
C632        C  0.64945516  0.63424024  0.20537573    -0.22400
C633        C  0.67579775  0.66427370  0.18219466     0.20700
C634        C  0.70723869  0.68387759  0.20757079     0.25700
C635        C  0.71258098  0.67385816  0.25690047    -0.22300
C636        C  0.68680957  0.64250150  0.27818985     0.20600
F637        F  0.69105470  0.63128277  0.32489375    -0.12300
F638        F  0.63025611  0.59453559  0.27657476    -0.14600
F639        F  0.73134492  0.71388744  0.18558957    -0.14600
F640        F  0.67011225  0.67599446  0.13700464    -0.12300
C641        C  0.63188816  0.56794811  0.12523259     0.25800
C642        C  0.61268566  0.58350614  0.11293007    -0.22400
C643        C  0.60581598  0.58670739  0.06081443     0.20700
C644        C  0.61770296  0.57422612  0.02160855     0.25700
C645        C  0.63583408  0.55756117  0.03411210    -0.22300
C646        C  0.64314197  0.55482768  0.08609620     0.20600
F647        F  0.66073511  0.53883180  0.09879874    -0.12300
F648        F  0.63802580  0.56374544  0.17520139    -0.14600
F649        F  0.61003427  0.57683868  0.97180208    -0.14600
F650        F  0.58688151  0.60130910  0.04817065    -0.12300
C651        C  0.47537174  0.51464861  0.11776074     0.25800
C652        C  0.47302712  0.48539070  0.14114627    -0.22400
C653        C  0.50310179  0.48681748  0.15910253     0.20700
C654        C  0.53419676  0.51794486  0.15885398     0.25700
C655        C  0.53558686  0.54801463  0.14073455    -0.22300
C656        C  0.50644237  0.54577405  0.11762570     0.20600
F657        F  0.50730055  0.57441654  0.09939082    -0.12300
F658        F  0.44674289  0.51381549  0.09981416    -0.14600
F659        F  0.56158815  0.51949763  0.18299657    -0.14600
F660        F  0.50152972  0.45944274  0.18373359    -0.12300
loop_ 
_geom_bond_atom_site_label_1 
_geom_bond_atom_site_label_2 
_geom_bond_distance 
_geom_bond_site_symmetry_2 
_ccdc_geom_bond_type 
N1            C5   1.356       .  A
N1            C2   1.359       .  A
N1          C642   1.438       .  S
C2            C3   1.383       .  A
C2          C632   1.482       .  S
C3            C4   1.375       .  A
C3            H6   1.082       .  S
C4            C5   1.381       .  A
C4            H7   1.082       .  S
C5          C655   1.481       .  S
N8           C12   1.356       .  A
N8            C9   1.355       .  A
N8          C622   1.437       .  S
C9           C10   1.382       .  A
C9          C615   1.474       .  S
C10          C11   1.374       .  A
C10          H13   1.082       .  S
C11          C12   1.383       .  A
C11          H14   1.082       .  S
C12         C652   1.481       .  S
N15          C19   1.358       .  A
N15          C16   1.357   1_554  A
N15         C625   1.438       .  S
C16          C17   1.382       .  A
C16         C595   1.480       .  S
C17          C18   1.374       .  A
C17          H20   1.082       .  S
C18          C19   1.383   1_556  A
C18          H21   1.082       .  S
C19         C605   1.487       .  S
N22          C26   1.358       .  A
N22          C23   1.357       .  A
N22         C645   1.438   1_556  S
C23          C24   1.381       .  A
C23         C582   1.478       .  S
C24          C25   1.375       .  A
C24          H27   1.082       .  S
C25          C26   1.383       .  A
C25          H28   1.082       .  S
C26         C602   1.485   1_556  S
N29          C33   1.357       .  A
N29          C30   1.358       .  A
N29         C565   1.441       .  S
C30          C31   1.382       .  A
C30         C555   1.479       .  S
C31          C32   1.372       .  A
C31          H34   1.082       .  S
C32          C33   1.382       .  A
C32          H35   1.082       .  S
C33         C572   1.479       .  S
N36          C40   1.355       .  A
N36          C37   1.357       .  A
N36         C542   1.440   1_545  S
C37          C38   1.382       .  A
C37         C535   1.474       .  S
C38          C39   1.372       .  A
C38          H41   1.082       .  S
C39          C40   1.382       .  A
C39          H42   1.082       .  S
C40         C575   1.478       .  S
N43          C47   1.357       .  A
N43          C44   1.357       .  A
N43         C545   1.441   1_556  S
C44          C45   1.381       .  A
C44         C512   1.476       .  S
C45          C46   1.373       .  A
C45          H48   1.082       .  S
C46          C47   1.382       .  A
C46          H49   1.082       .  S
C47         C525   1.481   1_556  S
N50          C54   1.358   1_554  A
N50          C51   1.358   1_554  A
N50         C562   1.440       .  S
C51          C52   1.382       .  A
C51         C505   1.477       .  S
C52          C53   1.373       .  A
C52          H55   1.082       .  S
C53          C54   1.382       .  A
C53          H56   1.082       .  S
C54         C522   1.483   1_556  S
In57         O59   2.257       .  S
In57         O60   2.264       .  S
In57         O68   2.281       .  S
In57         O62   2.250       .  S
In57         O64   2.263       .  S
In57         O65   2.271       .  S
In57         O66   2.259       .  S
In57         O69   2.263       .  S
C58         C472   1.492       .  S
C58          O64   1.261       .  A
C58          O66   1.261       .  A
O59          C67   1.260       .  A
O60          C67   1.262       .  A
C61         C635   1.493       .  S
C61          O68   1.262       .  A
C61          O62   1.260       .  A
C63         C485   1.493       .  S
C63          O65   1.261       .  A
C63          O69   1.260       .  A
C67         C492   1.492       .  S
In70         O72   2.267       .  S
In70         O73   2.257       .  S
In70         O81   2.267       .  S
In70         O75   2.251       .  S
In70         O77   2.270       .  S
In70         O78   2.259       .  S
In70         O79   2.242       .  S
In70         O82   2.258   1_455  S
C71         C452   1.487       .  S
C71          O77   1.261       .  A
C71          O79   1.259       .  A
O72          C80   1.260       .  A
O73          C80   1.260       .  A
C74         C442   1.489       .  S
C74          O81   1.261       .  A
C74          O75   1.260       .  A
C76         C495   1.492       .  S
C76          O78   1.262   1_655  A
C76          O82   1.261       .  A
C80         C462   1.492       .  S
In83         O85   2.268       .  S
In83         O86   2.259       .  S
In83         O94   2.273       .  S
In83         O88   2.247       .  S
In83         O90   2.270       .  S
In83         O91   2.262   1_565  S
In83         O92   2.243       .  S
In83         O95   2.246   1_565  S
C84         C422   1.490       .  S
C84          O90   1.262       .  A
C84          O92   1.260       .  A
O85          C93   1.261       .  A
O86          C93   1.259       .  A
C87         C552   1.491       .  S
C87          O94   1.261       .  A
C87          O88   1.259       .  A
C89         C432   1.487       .  S
C89          O91   1.262       .  A
C89          O95   1.260       .  A
C93         C482   1.493       .  S
In96         O98   2.234   1_455  S
In96         O99   2.252       .  S
In96        O107   2.260       .  S
In96        O101   2.244       .  S
In96        O103   2.261       .  S
In96        O104   2.248       .  S
In96        O105   2.235       .  S
In96        O108   2.259       .  S
C97         C402   1.485       .  S
C97         O103   1.263       .  A
C97         O105   1.260       .  A
O98         C106   1.262       .  A
O99         C106   1.264   1_455  A
C100        C392   1.485       .  S
C100        O107   1.260       .  A
C100        O101   1.261       .  A
C102        C412   1.487       .  S
C102        O104   1.260       .  A
C102        O108   1.259       .  A
C106        C435   1.484       .  S
In109       O111   2.253       .  S
In109       O112   2.244       .  S
In109       O120   2.265       .  S
In109       O114   2.238       .  S
In109       O116   2.260       .  S
In109       O117   2.240       .  S
In109       O118   2.235       .  S
In109       O121   2.261       .  S
C110        C375   1.485       .  S
C110        O116   1.262       .  A
C110        O118   1.259       .  A
O111        C119   1.261       .  A
O112        C119   1.261       .  A
C113        C612   1.486       .  S
C113        O120   1.261       .  A
C113        O114   1.260       .  A
C115        C382   1.487       .  S
C115        O117   1.259       .  A
C115        O121   1.261       .  A
C119        C415   1.486       .  S
In122       O124   2.256   1_565  S
In122       O125   2.249   1_565  S
In122       O133   2.257       .  S
In122       O127   2.242       .  S
In122       O129   2.258       .  S
In122       O130   2.255       .  S
In122       O131   2.241       .  S
In122       O134   2.254       .  S
C123        C362   1.485       .  S
C123        O129   1.261       .  A
C123        O131   1.259       .  A
O124        C132   1.261       .  A
O125        C132   1.262       .  A
C126        C532   1.486       .  S
C126        O133   1.261       .  A
C126        O127   1.260       .  A
C128        C465   1.490       .  S
C128        O130   1.261       .  A
C128        O134   1.260       .  A
C132        C385   1.488       .  S
In135       O137   2.253       .  S
In135       O138   2.255       .  S
In135       O146   2.263       .  S
In135       O140   2.260       .  S
In135       O142   2.278       .  S
In135       O143   2.237       .  S
In135       O144   2.248       .  S
In135       O147   2.251       .  S
C136        C475   1.493       .  S
C136        O142   1.263       .  A
C136        O144   1.259       .  A
O137        C145   1.260       .  A
O138        C145   1.259       .  A
C139        C585   1.490       .  S
C139        O146   1.259       .  A
C139        O140   1.261       .  A
C141        C355   1.485       .  S
C141        O143   1.262       .  A
C141        O147   1.263       .  A
C145        C342   1.486       .  S
In148       O150   2.250   1_455  S
In148       O151   2.250       .  S
In148       O159   2.260       .  S
In148       O153   2.251       .  S
In148       O155   2.261       .  S
In148       O156   2.259       .  S
In148       O157   2.235       .  S
In148       O160   2.241       .  S
C149        C455   1.486       .  S
C149        O155   1.263       .  A
C149        O157   1.260       .  A
O150        C158   1.260       .  A
O151        C158   1.261   1_455  A
C152        C322   1.487       .  S
C152        O159   1.260       .  A
C152        O153   1.260       .  A
C154        C335   1.486       .  S
C154        O156   1.263       .  A
C154        O160   1.261       .  A
C158        C352   1.486       .  S
In161       O163   2.264   1_565  S
In161       O164   2.256   1_565  S
In161       O172   2.268       .  S
In161       O166   2.252       .  S
In161       O168   2.270       .  S
In161       O169   2.254       .  S
In161       O170   2.244       .  S
In161       O173   2.251       .  S
C162        C425   1.490       .  S
C162        O168   1.262       .  A
C162        O170   1.259       .  A
O163        C171   1.260       .  A
O164        C171   1.259       .  A
C165        C502   1.489       .  S
C165        O172   1.260       .  A
C165        O166   1.260       .  A
C167        C345   1.488       .  S
C167        O169   1.261       .  A
C167        O173   1.261       .  A
C171        C312   1.491       .  S
In174       O176   2.261       .  S
In174       O177   2.247       .  S
In174       O185   2.276       .  S
In174       O179   2.247       .  S
In174       O181   2.268       .  S
In174       O182   2.253       .  S
In174       O183   2.247       .  S
In174       O186   2.263   1_455  S
C175        C405   1.486       .  S
C175        O181   1.262       .  A
C175        O183   1.259       .  A
O176        C184   1.261       .  A
O177        C184   1.261       .  A
C178        C295   1.492       .  S
C178        O185   1.261       .  A
C178        O179   1.260       .  A
C180        C315   1.491       .  S
C180        O182   1.260   1_655  A
C180        O186   1.261       .  A
C184        C305   1.488       .  S
In187       O189   2.251       .  S
In187       O190   2.251       .  S
In187       O198   2.275       .  S
In187       O192   2.240       .  S
In187       O194   2.258       .  S
In187       O195   2.254       .  S
In187       O196   2.241       .  S
In187       O199   2.250       .  S
C188        C372   1.483       .  S
C188        O194   1.262       .  A
C188        O196   1.260       .  A
O189        C197   1.261       .  A
O190        C197   1.261       .  A
C191        C592   1.488       .  S
C191        O198   1.261       .  A
C191        O192   1.259       .  A
C193        C302   1.487       .  S
C193        O195   1.261       .  A
C193        O199   1.259       .  A
C197        C282   1.485       .  S
In200       O202   2.247       .  S
In200       O203   2.253       .  S
In200       O211   2.253       .  S
In200       O205   2.258       .  S
In200       O207   2.256       .  S
In200       O208   2.247   1_565  S
In200       O209   2.235       .  S
In200       O212   2.259   1_565  S
C201        C365   1.483       .  S
C201        O207   1.263       .  A
C201        O209   1.260       .  A
O202        C210   1.261       .  A
O203        C210   1.262       .  A
C204        C515   1.487       .  S
C204        O211   1.259       .  A
C204        O205   1.261       .  A
C206        C285   1.487       .  S
C206        O208   1.259       .  A
C206        O212   1.260       .  A
C210        C332   1.485       .  S
N213        C217   1.360       .  A
N213        C214   1.358       .  A
N213        C265   1.440   1_556  S
C214        C215   1.381       .  A
C214        C292   1.480       .  S
C215        C216   1.374       .  A
C215        H218   1.082       .  S
C216        C217   1.383       .  A
C216        H219   1.082       .  S
C217        C275   1.491   1_556  S
N220        C224   1.359       .  A
N220        C221   1.357       .  A
N220        C252   1.440   1_556  S
C221        C222   1.380       .  A
C221        C325   1.475       .  S
C222        C223   1.373       .  A
C222        H225   1.082       .  S
C223        C224   1.383       .  A
C223        H226   1.082       .  S
C224        C272   1.482       .  S
N227        C231   1.360       .  A
N227        C228   1.356       .  A
N227        C262   1.439   1_655  S
C228        C229   1.380       .  A
C228        C395   1.475       .  S
C229        C230   1.373       .  A
C229        H232   1.082       .  S
C230        C231   1.386       .  A
C230        H233   1.082       .  S
C231        C242   1.490       .  S
N234        C238   1.359       .  A
N234        C235   1.359       .  A
N234        C255   1.440   1_655  S
C235        C236   1.381       .  A
C235        C445   1.479   1_655  S
C236        C237   1.373       .  A
C236        H239   1.082       .  S
C237        C238   1.382       .  A
C237        H240   1.082       .  S
C238        C245   1.483       .  S
C241        C242   1.409   1_455  A
C241        C246   1.400       .  A
C241        F248   1.353       .  S
C242        C243   1.409       .  A
C243        C244   1.401       .  A
C243        F250   1.358       .  S
C244        C245   1.405       .  A
C244        F249   1.358       .  S
C245        C246   1.404   1_655  A
C246        F247   1.356       .  S
C251        C252   1.406       .  A
C251        C256   1.400       .  A
C251        F258   1.357       .  S
C252        C253   1.403       .  A
C253        C254   1.402       .  A
C253        F260   1.356   1_554  S
C254        C255   1.408       .  A
C254        F259   1.357   1_455  S
C255        C256   1.402       .  A
C256        F257   1.356       .  S
C261        C262   1.402       .  A
C261        C266   1.398       .  A
C261        F268   1.357       .  S
C262        C263   1.406       .  A
C263        C264   1.402       .  A
C263        F270   1.357   1_455  S
C264        C265   1.403       .  A
C264        F269   1.356   1_554  S
C265        C266   1.407       .  A
C266        F267   1.357       .  S
C271        C272   1.405   1_554  A
C271        C276   1.401       .  A
C271        F278   1.358       .  S
C272        C273   1.405       .  A
C273        C274   1.403       .  A
C273        F280   1.358       .  S
C274        C275   1.409   1_556  A
C274        F279   1.356       .  S
C275        C276   1.409       .  A
C276        F277   1.358       .  S
C281        C282   1.408       .  A
C281        C286   1.399       .  A
C281        F288   1.358       .  S
C282        C283   1.408       .  A
C283        C284   1.401       .  A
C283        F290   1.358       .  S
C284        C285   1.409       .  A
C284        F289   1.358       .  S
C285        C286   1.409       .  A
C286        F287   1.358       .  S
C291        C292   1.404       .  A
C291        C296   1.398       .  A
C291        F298   1.358       .  S
C292        C293   1.404       .  A
C293        C294   1.407       .  A
C293        F300   1.358   1_556  S
C294        C295   1.413       .  A
C294        F299   1.358       .  S
C295        C296   1.409       .  A
C296        F297   1.358       .  S
C301        C302   1.409       .  A
C301        C306   1.402       .  A
C301        F308   1.358       .  S
C302        C303   1.408       .  A
C303        C304   1.400       .  A
C303        F310   1.358       .  S
C304        C305   1.409       .  A
C304        F309   1.358       .  S
C305        C306   1.409       .  A
C306        F307   1.358       .  S
C311        C312   1.409       .  A
C311        C316   1.401       .  A
C311        F318   1.358       .  S
C312        C313   1.409       .  A
C313        C314   1.403       .  A
C313        F320   1.358       .  S
C314        C315   1.410       .  A
C314        F319   1.358       .  S
C315        C316   1.409       .  A
C316        F317   1.358       .  S
C321        C322   1.412       .  A
C321        C326   1.403       .  A
C321        F328   1.357       .  S
C322        C323   1.409       .  A
C323        C324   1.399       .  A
C323        F330   1.358       .  S
C324        C325   1.404       .  A
C324        F329   1.358       .  S
C325        C326   1.401       .  A
C326        F327   1.358       .  S
C331        C332   1.408       .  A
C331        C336   1.399       .  A
C331        F338   1.358       .  S
C332        C333   1.408       .  A
C333        C334   1.402       .  A
C333        F340   1.358       .  S
C334        C335   1.408       .  A
C334        F339   1.357       .  S
C335        C336   1.409       .  A
C336        F337   1.358       .  S
C341        C342   1.409       .  A
C341        C346   1.402       .  A
C341        F348   1.358       .  S
C342        C343   1.408       .  A
C343        C344   1.399       .  A
C343        F350   1.358       .  S
C344        C345   1.409       .  A
C344        F349   1.358       .  S
C345        C346   1.410       .  A
C346        F347   1.358       .  S
C351        C352   1.410       .  A
C351        C356   1.401       .  A
C351        F358   1.358       .  S
C352        C353   1.408       .  A
C353        C354   1.399       .  A
C353        F360   1.358       .  S
C354        C355   1.409       .  A
C354        F359   1.358       .  S
C355        C356   1.408       .  A
C356        F357   1.358       .  S
C361        C362   1.409       .  A
C361        C366   1.401       .  A
C361        F368   1.358       .  S
C362        C363   1.408       .  A
C363        C364   1.397       .  A
C363        F370   1.358       .  S
C364        C365   1.408       .  A
C364        F369   1.358       .  S
C365        C366   1.407       .  A
C366        F367   1.358   1_565  S
C371        C372   1.408       .  A
C371        C376   1.402       .  A
C371        F378   1.358       .  S
C372        C373   1.407       .  A
C373        C374   1.397       .  A
C373        F380   1.358       .  S
C374        C375   1.409       .  A
C374        F379   1.358       .  S
C375        C376   1.409       .  A
C376        F377   1.358       .  S
C381        C382   1.409       .  A
C381        C386   1.403       .  A
C381        F388   1.358       .  S
C382        C383   1.409       .  A
C383        C384   1.398       .  A
C383        F390   1.358       .  S
C384        C385   1.408       .  A
C384        F389   1.358       .  S
C385        C386   1.410       .  A
C386        F387   1.358       .  S
C391        C392   1.413       .  A
C391        C396   1.404   1_455  A
C391        F398   1.358       .  S
C392        C393   1.408       .  A
C393        C394   1.397       .  A
C393        F400   1.358       .  S
C394        C395   1.403   1_455  A
C394        F399   1.358       .  S
C395        C396   1.401       .  A
C396        F397   1.358       .  S
C401        C402   1.408       .  A
C401        C406   1.403       .  A
C401        F408   1.358       .  S
C402        C403   1.408       .  A
C403        C404   1.398       .  A
C403        F410   1.358       .  S
C404        C405   1.408       .  A
C404        F409   1.358       .  S
C405        C406   1.409       .  A
C406        F407   1.357       .  S
C411        C412   1.410       .  A
C411        C416   1.402       .  A
C411        F418   1.358       .  S
C412        C413   1.408       .  A
C413        C414   1.399       .  A
C413        F420   1.358       .  S
C414        C415   1.408       .  A
C414        F419   1.358       .  S
C415        C416   1.409       .  A
C416        F417   1.358       .  S
C421        C422   1.408       .  A
C421        C426   1.398       .  A
C421        F428   1.358       .  S
C422        C423   1.410       .  A
C423        C424   1.405       .  A
C423        F430   1.358       .  S
C424        C425   1.410       .  A
C424        F429   1.358       .  S
C425        C426   1.408       .  A
C426        F427   1.358       .  S
C431        C432   1.410       .  A
C431        C436   1.403       .  A
C431        F438   1.358       .  S
C432        C433   1.409       .  A
C433        C434   1.398       .  A
C433        F440   1.358       .  S
C434        C435   1.408       .  A
C434        F439   1.358       .  S
C435        C436   1.408       .  A
C436        F437   1.358       .  S
C441        C442   1.411       .  A
C441        C446   1.405       .  A
C441        F448   1.357   1_455  S
C442        C443   1.409       .  A
C443        C444   1.400       .  A
C443        F450   1.358       .  S
C444        C445   1.405       .  A
C444        F449   1.358       .  S
C445        C446   1.403       .  A
C446        F447   1.357   1_455  S
C451        C452   1.408       .  A
C451        C456   1.397       .  A
C451        F458   1.358       .  S
C452        C453   1.410       .  A
C453        C454   1.404       .  A
C453        F460   1.358       .  S
C454        C455   1.409       .  A
C454        F459   1.358       .  S
C455        C456   1.408       .  A
C456        F457   1.358       .  S
C461        C462   1.410       .  A
C461        C466   1.403       .  A
C461        F468   1.358       .  S
C462        C463   1.410       .  A
C463        C464   1.401       .  A
C463        F470   1.357       .  S
C464        C465   1.408       .  A
C464        F469   1.358       .  S
C465        C466   1.410       .  A
C466        F467   1.358       .  S
C471        C472   1.409       .  A
C471        C476   1.401       .  A
C471        F478   1.358       .  S
C472        C473   1.410       .  A
C473        C474   1.405       .  A
C473        F480   1.358       .  S
C474        C475   1.409       .  A
C474        F479   1.357       .  S
C475        C476   1.410       .  A
C476        F477   1.358       .  S
C481        C482   1.410       .  A
C481        C486   1.403       .  A
C481        F488   1.358       .  S
C482        C483   1.409       .  A
C483        C484   1.404       .  A
C483        F490   1.358       .  S
C484        C485   1.410       .  A
C484        F489   1.358       .  S
C485        C486   1.409       .  A
C486        F487   1.358       .  S
C491        C492   1.409       .  A
C491        C496   1.403       .  A
C491        F498   1.358       .  S
C492        C493   1.410       .  A
C493        C494   1.403       .  A
C493        F500   1.358       .  S
C494        C495   1.410       .  A
C494        F499   1.358       .  S
C495        C496   1.410       .  A
C496        F497   1.358       .  S
C501        C502   1.409       .  A
C501        C506   1.400       .  A
C501        F508   1.358       .  S
C502        C503   1.411       .  A
C503        C504   1.404       .  A
C503        F510   1.357       .  S
C504        C505   1.404       .  A
C504        F509   1.358   1_556  S
C505        C506   1.404       .  A
C506        F507   1.358       .  S
C511        C512   1.405       .  A
C511        C516   1.400       .  A
C511        F518   1.358       .  S
C512        C513   1.401       .  A
C513        C514   1.403       .  A
C513        F520   1.357       .  S
C514        C515   1.412       .  A
C514        F519   1.357       .  S
C515        C516   1.409       .  A
C516        F517   1.358       .  S
C521        C522   1.405       .  A
C521        C526   1.400       .  A
C521        F528   1.358       .  S
C522        C523   1.407   1_554  A
C523        C524   1.402       .  A
C523        F530   1.357       .  S
C524        C525   1.407   1_556  A
C524        F529   1.358       .  S
C525        C526   1.404       .  A
C526        F527   1.358       .  S
C531        C532   1.409       .  A
C531        C536   1.399       .  A
C531        F538   1.358       .  S
C532        C533   1.410   1_565  A
C533        C534   1.402       .  A
C533        F540   1.358       .  S
C534        C535   1.402       .  A
C534        F539   1.357       .  S
C535        C536   1.404   1_545  A
C536        F537   1.358       .  S
C541        C542   1.402       .  A
C541        C546   1.402       .  A
C541        F548   1.356       .  S
C542        C543   1.407   1_565  A
C543        C544   1.400   1_545  A
C543        F550   1.357       .  S
C544        C545   1.402       .  A
C544        F549   1.356   1_564  S
C545        C546   1.409       .  A
C546        F547   1.357       .  S
C551        C552   1.409       .  A
C551        C556   1.397   1_565  A
C551        F558   1.358       .  S
C552        C553   1.413   1_565  A
C553        C554   1.406       .  A
C553        F560   1.357       .  S
C554        C555   1.401       .  A
C554        F559   1.357       .  S
C555        C556   1.405       .  A
C556        F557   1.359       .  S
C561        C562   1.401       .  A
C561        C566   1.400   1_565  A
C561        F568   1.355   1_564  S
C562        C563   1.409       .  A
C563        C564   1.402       .  A
C563        F570   1.357       .  S
C564        C565   1.402   1_565  A
C564        F569   1.357       .  S
C565        C566   1.407       .  A
C566        F567   1.357       .  S
C571        C572   1.407       .  A
C571        C576   1.398       .  A
C571        F578   1.357   1_545  S
C572        C573   1.405       .  A
C573        C574   1.399       .  A
C573        F580   1.357       .  S
C574        C575   1.404       .  A
C574        F579   1.358       .  S
C575        C576   1.405       .  A
C576        F577   1.357   1_545  S
C581        C582   1.402       .  A
C581        C586   1.404       .  A
C581        F588   1.358   1_556  S
C582        C583   1.404       .  A
C583        C584   1.400       .  A
C583        F590   1.358       .  S
C584        C585   1.409       .  A
C584        F589   1.358       .  S
C585        C586   1.413       .  A
C586        F587   1.358       .  S
C591        C592   1.412       .  A
C591        C596   1.407       .  A
C591        F598   1.357       .  S
C592        C593   1.408       .  A
C593        C594   1.397       .  A
C593        F600   1.358       .  S
C594        C595   1.404       .  A
C594        F599   1.358       .  S
C595        C596   1.403       .  A
C596        F597   1.357   1_556  S
C601        C602   1.406       .  A
C601        C606   1.401       .  A
C601        F608   1.358       .  S
C602        C603   1.405       .  A
C603        C604   1.400       .  A
C603        F610   1.356   1_554  S
C604        C605   1.408       .  A
C604        F609   1.355   1_554  S
C605        C606   1.407       .  A
C606        F607   1.358       .  S
C611        C612   1.408       .  A
C611        C616   1.395       .  A
C611        F618   1.358       .  S
C612        C613   1.413       .  A
C613        C614   1.405       .  A
C613        F620   1.357       .  S
C614        C615   1.402       .  A
C614        F619   1.358       .  S
C615        C616   1.402       .  A
C616        F617   1.358       .  S
C621        C622   1.406       .  A
C621        C626   1.399       .  A
C621        F628   1.357       .  S
C622        C623   1.402       .  A
C623        C624   1.399       .  A
C623        F630   1.356       .  S
C624        C625   1.407       .  A
C624        F629   1.357       .  S
C625        C626   1.402       .  A
C626        F627   1.356   1_554  S
C631        C632   1.404       .  A
C631        C636   1.399       .  A
C631        F638   1.358       .  S
C632        C633   1.404       .  A
C633        C634   1.408       .  A
C633        F640   1.357       .  S
C634        C635   1.413       .  A
C634        F639   1.357       .  S
C635        C636   1.409       .  A
C636        F637   1.358       .  S
C641        C642   1.401       .  A
C641        C646   1.399       .  A
C641        F648   1.356       .  S
C642        C643   1.408       .  A
C643        C644   1.400       .  A
C643        F650   1.357       .  S
C644        C645   1.402       .  A
C644        F649   1.356   1_554  S
C645        C646   1.406       .  A
C646        F647   1.357       .  S
C651        C652   1.405       .  A
C651        C656   1.400       .  A
C651        F658   1.358       .  S
C652        C653   1.407       .  A
C653        C654   1.400       .  A
C653        F660   1.357       .  S
C654        C655   1.406       .  A
C654        F659   1.358       .  S
C655        C656   1.404       .  A
C656        F657   1.357       .  S
