geometry optimzed in LAMMPS
_audit_creation_date              2020-11-30 
_audit_creation_method            'lammps2cif' 
_symmetry_space_group_name_H-M    'P1' 
_symmetry_Int_Tables_number       1 
_symmetry_cell_setting            triclinic 
loop_ 
_symmetry_equiv_pos_as_xyz 
  x,y,z 
_cell_length_a                    33.055836861302005 
_cell_length_b                    29.798177295706356 
_cell_length_c                    54.01255241355875 
_cell_angle_alpha                 87.45118674924346 
_cell_angle_beta                  89.91832687445576 
_cell_angle_gamma                 90.12166443252607 
loop_ 
_atom_site_label 
_atom_site_type_symbol 
_atom_site_fract_x 
_atom_site_fract_y 
_atom_site_fract_z 
_atom_site_charge 
C1          C  0.47569603  0.99922817  0.50099831     0.02060
C2          C  0.01668709  0.50042580  0.50051550     0.02060
C3          C  0.47198432  0.25264824  0.49967777     0.02060
C4          C  0.01285566  0.25394585  0.49866865     0.02060
C5          C  0.34623824  0.43935831  0.44069397     0.43950
N6          N  0.29259736  0.43529683  0.41813285     0.02840
C7          C  0.16237750  0.25690327  0.41115534    -0.05030
H8          H  0.33072706  0.22368220  0.39803301     0.08330
C9          C  0.31321803  0.31420148  0.32102458    -0.05390
Co10       Co  0.24694919  0.35134991  0.43155250     0.74180
N11         N  0.28874395  0.27451684  0.40957492    -0.24560
Co12       Co  0.24364945  0.28092522  0.38263595     0.74070
C13         C  0.32792743  0.26845547  0.32635832     0.44050
N14         N  0.28952665  0.42303883  0.34455995     0.02460
N15         N  0.28739084  0.28713618  0.35520205     0.02560
N16         N  0.16907663  0.30270597  0.44301813    -0.45410
H17         H  0.32913532  0.37441364  0.46297314     0.08320
N18         N  0.28935611  0.30174209  0.42809877     0.02850
N19         N  0.20022530  0.28840544  0.35513171     0.02590
C20         C  0.16036327  0.26945869  0.32593345     0.44190
N21         N  0.28931188  0.45059041  0.36304212    -0.24020
C22         C  0.17577212  0.40195644  0.45135238    -0.04940
N23         N  0.32510069  0.46054302  0.42201235    -0.45130
N24         N  0.17727801  0.25532138  0.34756171    -0.45350
C25         C  0.15218159  0.44173080  0.44485584     0.43970
N26         N  0.20147053  0.30418197  0.42883754     0.02840
N27         N  0.20294039  0.45221940  0.36299283    -0.24040
N28         N  0.29164439  0.39921512  0.43314519    -0.24530
N29         N  0.20214476  0.42431041  0.34461283     0.02480
H30         H  0.17916802  0.51904676  0.36637451     0.08370
H31         H  0.17450714  0.33459704  0.30306561     0.08400
N32         N  0.19863657  0.27792136  0.40992864    -0.24580
N33         N  0.28793782  0.32251595  0.33962817    -0.24200
N34         N  0.20202336  0.43656846  0.41920426     0.02840
C35         C  0.34301086  0.26279664  0.43313579     0.44240
C36         C  0.31424786  0.48502808  0.35746613    -0.05450
N37         N  0.20095626  0.32336897  0.33926337    -0.24190
H38         H  0.31663138  0.33506586  0.30424251     0.08390
N39         N  0.32122537  0.29599000  0.44248739    -0.45420
H40         H  0.31691381  0.51508065  0.36786395     0.08370
C41         C  0.16547063  0.48015059  0.33150252     0.44070
C42         C  0.32336494  0.39941155  0.44831717    -0.04940
Co43       Co  0.24648769  0.44482662  0.39112617     0.73820
N44         N  0.31291316  0.43783400  0.32604585    -0.45130
C45         C  0.14278671  0.27417760  0.43316760     0.44340
N46         N  0.17030205  0.46202195  0.42457475    -0.45120
Co47       Co  0.24511594  0.37350510  0.34183889     0.73890
C48         C  0.17653411  0.31456681  0.32021348    -0.05450
C49         C  0.32182575  0.24818522  0.41115654    -0.05010
N50         N  0.20479275  0.40108673  0.43448539    -0.24540
N51         N  0.31033230  0.25402487  0.34778293    -0.45300
H52         H  0.15017856  0.23530076  0.39743753     0.08350
C53         C  0.18019175  0.48827312  0.35650961    -0.05430
Cl54       Cl  0.24542674  0.36279132  0.38666161    -0.48430
C55         C  0.33022290  0.47638824  0.33295372     0.44100
H56         H  0.17175929  0.37611392  0.46574164     0.08310
N57         N  0.18068007  0.44007915  0.32554141    -0.45140
C58         C  0.34713195  0.06015420  0.56132516     0.43950
N59         N  0.29299222  0.06551995  0.58335718     0.02840
C60         C  0.16552475  0.24747232  0.58558039    -0.05030
H61         H  0.33309911  0.27708742  0.60271919     0.08330
C62         C  0.31061485  0.18973267  0.67977182    -0.05390
Co63       Co  0.24915752  0.14965843  0.56861439     0.74180
N64         N  0.29100467  0.22663448  0.59066148    -0.24560
Co65       Co  0.24424787  0.22190604  0.61674567     0.74070
C66         C  0.32606874  0.23519018  0.67430271     0.44050
N67         N  0.28714880  0.08021202  0.65673132     0.02460
N68         N  0.28654695  0.21618157  0.64503229     0.02560
N69         N  0.17368595  0.20047047  0.55441862    -0.45410
H70         H  0.33147820  0.12451290  0.53827620     0.08320
N71         N  0.29252872  0.19847171  0.57258063     0.02850
N72         N  0.19950658  0.21573286  0.64376078     0.02590
C73         C  0.15986000  0.23606097  0.67284448     0.44190
N74         N  0.28749201  0.05233003  0.63839531    -0.24020
C75         C  0.17759365  0.09890297  0.54842621    -0.04940
N76         N  0.32523049  0.03968984  0.57998355    -0.45130
N77         N  0.17739539  0.24957224  0.65121139    -0.45350
C78         C  0.15322247  0.05962331  0.55530142     0.43970
N79         N  0.20443785  0.19788160  0.56985928     0.02840
N80         N  0.20117642  0.05116888  0.63741444    -0.24040
N81         N  0.29298838  0.10115091  0.56804053    -0.24530
N82         N  0.19976514  0.07962185  0.65551646     0.02480
H83         H  0.17808423  0.98388040  0.63450205     0.08370
H84         H  0.17210464  0.17088981  0.69594061     0.08400
N85         N  0.20078601  0.22486444  0.58839799    -0.24580
N86         N  0.28612212  0.18113737  0.66084759    -0.24200
N87         N  0.20248707  0.06539821  0.58121846     0.02840
C88         C  0.34770329  0.23550235  0.56887980     0.44240
C89         C  0.31234890  0.01814965  0.64428335    -0.05450
N90         N  0.19920559  0.18097116  0.65981699    -0.24190
H91         H  0.31311645  0.16923358  0.69673618     0.08390
N92         N  0.32582933  0.20260813  0.55920959    -0.45420
H93         H  0.31549793  0.98804737  0.63398170     0.08370
C94         C  0.16312615  0.02361785  0.66884868     0.44070
C95         C  0.32502700  0.10008840  0.55314114    -0.04940
Co96       Co  0.24578634  0.05749469  0.60981363     0.73820
N97         N  0.31005990  0.06579930  0.67551045    -0.45130
C98         C  0.14749135  0.23054758  0.56291641     0.44340
N99         N  0.17058111  0.04008430  0.57595506    -0.45120
Co100      Co  0.24302132  0.13031377  0.65840494     0.73890
C101        C  0.17461200  0.19052339  0.67867598    -0.05450
C102        C  0.32474686  0.25215847  0.58970190    -0.05010
N103        N  0.20617555  0.10027723  0.56554678    -0.24540
N104        N  0.30947713  0.24932815  0.65256107    -0.45300
H105        H  0.15306223  0.27049331  0.59848294     0.08350
C106        C  0.17846948  0.01504014  0.64403166    -0.05430
Cl107      Cl  0.24521771  0.13964369  0.61358618    -0.48430
C108        C  0.32767942  0.02729456  0.66882541     0.44100
H109        H  0.17448131  0.12394252  0.53354167     0.08310
N110        N  0.17791494  0.06410039  0.67454614    -0.45140
C111        C  0.26025593  0.00094740  0.00006809     0.02060
C112        C  0.21906016  0.00116400  0.00034866     0.02060
C113        C  0.25596103  0.24898846  0.00117239     0.02060
C114        C  0.21487774  0.24911172  0.00136556     0.02060
C115        C  0.38933677  0.01878531  0.93510064     0.43950
N116        N  0.44274167  0.03349069  0.91385512     0.02840
C117        C  0.06239534  0.22234580  0.91827820    -0.05030
H118        H  0.39696985  0.25037009  0.90401713     0.08330
C119        C  0.42098487  0.18272094  0.82175695    -0.05390
Co120      Co  0.48356122  0.11513604  0.93164343     0.74180
N121        N  0.43882575  0.19622936  0.91271514    -0.24560
Co122      Co  0.48528379  0.20042699  0.88605943     0.74070
C123        C  0.40549513  0.22681542  0.82787382     0.44050
N124        N  0.44605104  0.06834939  0.84155018     0.02460
N125        N  0.44317636  0.20070696  0.85753384     0.02560
N126        N  0.05699282  0.16663374  0.94765923    -0.45410
H127        H  0.39991417  0.07781654  0.96003764     0.08320
N128        N  0.43836355  0.16322582  0.92979189     0.02850
N129        N  0.03002433  0.20291780  0.85875359     0.02590
C130        C  0.07081720  0.23029262  0.83092723     0.44190
N131        N  0.44676304  0.03596962  0.85901774    -0.24020
C132        C  0.05924153  0.06306416  0.94823214    -0.04940
N133        N  0.41142172  0.00540470  0.91567256    -0.45130
N134        N  0.05205205  0.23881210  0.85242166    -0.45350
C135        C  0.08468941  0.02848508  0.93844008     0.43970
N136        N  0.02672932  0.16558358  0.93184614     0.02840
N137        N  0.03334100  0.03771573  0.85965397    -0.24040
N138        N  0.44137702  0.06449630  0.93049867    -0.24530
N139        N  0.03349491  0.07009128  0.84214478     0.02480
H140        H  0.05885516  0.97121720  0.86161580     0.08370
H141        H  0.06078038  0.17031854  0.80639029     0.08400
N142        N  0.02883509  0.19773689  0.91435647    -0.24580
N143        N  0.44461601  0.16975433  0.84080393    -0.24200
N144        N  0.03251228  0.03728666  0.91530084     0.02840
C145        C  0.38374208  0.19954107  0.93663331     0.44240
C146        C  0.42223767  0.00281662  0.85253756    -0.05450
N147        N  0.03150342  0.17201126  0.84195444    -0.24190
H148        H  0.41988527  0.16669866  0.80419844     0.08390
N149        N  0.40625715  0.16404337  0.94438375    -0.45420
H150        H  0.41987343  0.97017220  0.86204702     0.08370
C151        C  0.07186308  0.01864681  0.82785914     0.44070
C152        C  0.40903853  0.05759588  0.94489906    -0.04940
Co153      Co  0.48906311  0.03521413  0.88721155     0.73660
N154        N  0.42289881  0.05806542  0.82263811    -0.45130
C155        C  0.08126058  0.20114231  0.94057865     0.44340
N156        N  0.06639307  0.01350562  0.91794979    -0.45120
Co157      Co  0.48894253  0.11999578  0.84142106     0.73890
C158        C  0.05695406  0.18608488  0.82387945    -0.05450
C159        C  0.40549009  0.22143303  0.91563816    -0.05010
N160        N  0.02856338  0.06716599  0.93242543    -0.24540
N161        N  0.42079295  0.23565479  0.85028904    -0.45300
H162        H  0.07265001  0.25044027  0.90654394     0.08350
C163        C  0.05727901  0.00427890  0.85252978    -0.05430
Cl164      Cl  0.48688404  0.11775813  0.88642633    -0.48430
C165        C  0.40612145  0.01755145  0.82846771     0.44100
H166        H  0.06425254  0.08341553  0.96395854     0.08310
N167        N  0.05542599  0.05953297  0.82271476    -0.45140
C168        C  0.11778926  0.40016792  0.74992132     0.02060
C169        C  0.11726856  0.35414781  0.75093226     0.02060
C170        C  0.36740287  0.35710231  0.74998033     0.02060
C171        C  0.36757950  0.40278516  0.74911680     0.02060
C172        C  0.11580324  0.14857655  0.25002810     0.02060
C173        C  0.11652199  0.10272194  0.25112125     0.02060
C174        C  0.36609323  0.14562272  0.25066453     0.02060
C175        C  0.36646119  0.09995816  0.25149136     0.02060
C176        C  0.39050422  0.48298014  0.06452745     0.43950
N177        N  0.44310456  0.46843239  0.08640723     0.02840
C178        C  0.06233482  0.27932815  0.08411862    -0.05030
H179        H  0.39716711  0.25110324  0.09746872     0.08330
C180        C  0.41755307  0.32125913  0.17876984    -0.05390
Co181      Co  0.48413374  0.38633849  0.06946980     0.74180
N182        N  0.43893251  0.30542024  0.08855296    -0.24560
Co183      Co  0.48449398  0.30201950  0.11553869     0.74070
C184        C  0.40233221  0.27688983  0.17281629     0.44050
N185        N  0.44406003  0.43487995  0.15890634     0.02460
N186        N  0.44146045  0.30225296  0.14357931     0.02560
N187        N  0.05792160  0.33445159  0.05435957    -0.45410
H188        H  0.40134944  0.42320616  0.04015226     0.08320
N189        N  0.43873342  0.33807221  0.07127103     0.02850
N190        N  0.02841158  0.30025855  0.14313179     0.02590
C191        C  0.06863458  0.27337010  0.17123956     0.44190
N192        N  0.44544295  0.46706205  0.14133835    -0.24020
C193        C  0.06034713  0.43820727  0.05326053    -0.04940
N194        N  0.41205729  0.49663283  0.08408983    -0.45130
N195        N  0.05056403  0.26468956  0.14959542    -0.45350
C196        C  0.08560011  0.47306647  0.06301382     0.43970
N197        N  0.02727947  0.33591740  0.06993862     0.02840
N198        N  0.03201406  0.46512192  0.14149341    -0.24040
N199        N  0.44204627  0.43704258  0.06996349    -0.24530
N200        N  0.03145122  0.43304152  0.15917003     0.02480
H201        H  0.05809915  0.53148348  0.13942067     0.08370
H202        H  0.05738470  0.33313292  0.19576644     0.08400
N203        N  0.02882334  0.30412281  0.08763800    -0.24580
N204        N  0.44222525  0.33362466  0.16006681    -0.24200
N205        N  0.03283749  0.46461586  0.08580993     0.02840
C206        C  0.38441315  0.30103350  0.06447783     0.44240
C207        C  0.42106933  0.50046748  0.14757146    -0.05450
N208        N  0.02917754  0.33117966  0.15992504    -0.24190
H209        H  0.41562211  0.33782678  0.19613959     0.08390
N210        N  0.40685469  0.33665982  0.05655039    -0.45420
H211        H  0.41925507  0.53306324  0.13797505     0.08370
C212        C  0.06974932  0.48450968  0.17350965     0.44070
C213        C  0.41017380  0.44376190  0.05522033    -0.04940
Co214      Co  0.48857179  0.46723269  0.11350306     0.73820
N215        N  0.42055466  0.44549817  0.17761118    -0.45130
C216        C  0.08184987  0.30000920  0.06183502     0.44340
N217        N  0.06680440  0.48847376  0.08324943    -0.45120
Co218      Co  0.48675036  0.38321467  0.15970594     0.73890
C219        C  0.05407409  0.31729126  0.17826412    -0.05450
C220        C  0.40580596  0.27982993  0.08567514    -0.05010
N221        N  0.02926435  0.43437569  0.06883896    -0.24540
N222        N  0.41859991  0.26751874  0.15071784    -0.45300
H223        H  0.07212536  0.25140293  0.09608135     0.08350
C224        C  0.05597849  0.49857865  0.14865876    -0.05430
Cl225      Cl  0.48609629  0.38470318  0.11465879    -0.48430
C226        C  0.40427390  0.48608398  0.17158822     0.44100
H227        H  0.06567043  0.41757123  0.03768395     0.08310
N228        N  0.05285894  0.44382402  0.17874630    -0.45140
C229        C  0.42332412  0.04662918  0.19949347     0.25090
C230        C  0.39366758  0.51746436  0.19066659    -0.23020
C231        C  0.35479591  0.51715607  0.20094759     0.20000
C232        C  0.34567231  0.04544674  0.22011916     0.25030
C233        C  0.37545166  0.07415408  0.22928920    -0.22960
C234        C  0.41431344  0.07473890  0.21875398     0.19930
F235        F  0.44396650  0.10086238  0.22790352    -0.12920
F236        F  0.46145924  0.04652065  0.19009661    -0.15280
F237        F  0.30783789  0.04456665  0.22994909    -0.15280
F238        F  0.32590011  0.48917495  0.19257832    -0.12920
C239        C  0.36333228  0.20916909  0.18825299     0.25090
C240        C  0.39412227  0.24085052  0.19166894    -0.23020
C241        C  0.41869551  0.23673812  0.21287880     0.20000
C242        C  0.41124930  0.20308907  0.23094561     0.25030
C243        C  0.37882676  0.17319147  0.22843849    -0.22960
C244        C  0.35533364  0.17573506  0.20671945     0.19930
F245        F  0.32328144  0.14781098  0.20411524    -0.12920
F246        F  0.33998261  0.21188672  0.16759013    -0.15280
F247        F  0.43499558  0.20058412  0.25146036    -0.15280
F248        F  0.45015117  0.26521527  0.21621321    -0.12920
C249        C  0.12368503  0.07665890  0.20721552     0.25090
C250        C  0.10288434  0.07559901  0.23001821    -0.23020
C251        C  0.07103402  0.04475078  0.23388081     0.20000
C252        C  0.06057025  0.51502085  0.21562753     0.25030
C253        C  0.08157830  0.51564590  0.19292417    -0.22960
C254        C  0.11271586  0.04730726  0.18869703     0.19930
F255        F  0.13344080  0.04870321  0.16696067    -0.12920
F256        F  0.15573604  0.10460538  0.20329167    -0.15280
F257        F  0.02923824  0.48620614  0.22004342    -0.15280
F258        F  0.05000908  0.04332107  0.25551838    -0.12920
C259        C  0.12192696  0.23345199  0.19599741     0.25090
C260        C  0.08124819  0.23757538  0.18916947    -0.23020
C261        C  0.05217472  0.20916107  0.20074932     0.20000
C262        C  0.06353685  0.17816566  0.21971825     0.25030
C263        C  0.10414559  0.17519971  0.22722598    -0.22960
C264        C  0.13333922  0.20244746  0.21486892     0.19930
F265        F  0.17288623  0.19961557  0.22145771    -0.12920
F266        F  0.15043098  0.26016566  0.18474457    -0.15280
F267        F  0.03469589  0.15289141  0.23165178    -0.15280
F268        F  0.01256418  0.21288435  0.19441013    -0.12920
C269        C  0.07435682  0.46021731  0.76691941     0.25090
C270        C  0.10453302  0.42753665  0.77111235    -0.23020
C271        C  0.12404735  0.42493813  0.79432041     0.20000
C272        C  0.11326278  0.45430866  0.81290106     0.25030
C273        C  0.08381417  0.98768785  0.80833501    -0.22960
C274        C  0.06431742  0.99007176  0.78517153     0.19930
F275        F  0.03470160  0.02069354  0.78027361    -0.12920
F276        F  0.05445215  0.46331538  0.74493780    -0.15280
F277        F  0.13252793  0.45112521  0.83508507    -0.15280
F278        F  0.15464013  0.39535001  0.79866497    -0.12920
C279        C  0.13435917  0.29541905  0.78375810     0.25090
C280        C  0.10642788  0.32706935  0.77390463    -0.23020
C281        C  0.06740982  0.32863122  0.78425912     0.20000
C282        C  0.05643136  0.29848076  0.80379370     0.25030
C283        C  0.08405137  0.26590561  0.81292084    -0.22960
C284        C  0.12311677  0.26486579  0.80293986     0.19930
F285        F  0.15011962  0.23359153  0.81145569    -0.12920
F286        F  0.17238944  0.29343788  0.77434792    -0.15280
F287        F  0.01806644  0.29927324  0.81278366    -0.15280
F288        F  0.03923808  0.35734438  0.77447947    -0.12920
C289        C  0.42501799  0.95708890  0.80052768     0.25090
C290        C  0.39548738  0.98631903  0.80934006    -0.23020
C291        C  0.35651446  0.48630211  0.79929936     0.20000
C292        C  0.34713244  0.45755245  0.78039498     0.25030
C293        C  0.37676798  0.42872740  0.77123720    -0.22960
C294        C  0.41577148  0.42855722  0.78150308     0.19930
F295        F  0.44534566  0.40249960  0.77227934    -0.12920
F296        F  0.46322674  0.95746108  0.80974219    -0.15280
F297        F  0.30921013  0.45817761  0.77076428    -0.15280
F298        F  0.32775900  0.01438423  0.80765613    -0.12920
C299        C  0.41395965  0.30148269  0.76996099     0.25090
C300        C  0.38041594  0.32978462  0.77219370    -0.23020
C301        C  0.35658623  0.32634094  0.79380084     0.20000
C302        C  0.36518635  0.29329763  0.81234462     0.25030
C303        C  0.39718781  0.26312796  0.80921408    -0.22960
C304        C  0.42232785  0.26851518  0.78826043     0.19930
F305        F  0.45516060  0.24189457  0.78542518    -0.12920
F306        F  0.43806781  0.30502783  0.74958291    -0.15280
F307        F  0.34127987  0.28941767  0.83278465    -0.15280
F308        F  0.32373972  0.35304902  0.79623205    -0.12920
C309        C  0.14701748  0.25527965  0.05750173     0.25090
C310        C  0.12078021  0.29006715  0.04915661    -0.23020
C311        C  0.13173570  0.31597705  0.02763594     0.20000
C312        C  0.16647552  0.30626814  0.01437216     0.25030
C313        C  0.19037330  0.26906254  0.02125779    -0.22960
C314        C  0.18145768  0.24469342  0.04352878     0.19930
F315        F  0.20427551  0.20863393  0.05073528    -0.12920
F316        F  0.13850746  0.23002794  0.07837004    -0.15280
F317        F  0.17482436  0.33108868  0.99329410    -0.15280
F318        F  0.10776778  0.34957215  0.01831668    -0.12920
C319        C  0.32161513  0.32033174  0.04046245     0.25090
C320        C  0.34624023  0.28753880  0.05246770    -0.23020
C321        C  0.33578245  0.24203010  0.05092051     0.20000
C322        C  0.30342062  0.22957400  0.03596531     0.25030
C323        C  0.28056672  0.26237718  0.02266919    -0.22960
C324        C  0.28864255  0.30786953  0.02605010     0.19930
F325        F  0.26658767  0.34018603  0.01383014    -0.12920
F326        F  0.33062911  0.36454091  0.04169039    -0.15280
F327        F  0.29600772  0.18525943  0.03323613    -0.15280
F328        F  0.35893908  0.20940612  0.06201154    -0.12920
C329        C  0.18168918  0.25434059  0.95923802     0.25090
C330        C  0.18983241  0.22981122  0.98154042    -0.23020
C331        C  0.16494220  0.19329503  0.98844763     0.20000
C332        C  0.13015507  0.18434923  0.97508078     0.25030
C333        C  0.12008355  0.21040915  0.95348194    -0.22960
C334        C  0.14717162  0.24455136  0.94519193     0.19930
F335        F  0.13950251  0.26989187  0.92426036    -0.12920
F336        F  0.20537403  0.28984158  0.95205671    -0.15280
F337        F  0.10536483  0.15127272  0.98431254    -0.15280
F338        F  0.17247655  0.16837108  0.00957841    -0.12920
C339        C  0.33401436  0.25741929  0.95023776     0.25090
C340        C  0.34538750  0.21220129  0.94881725    -0.23020
C341        C  0.32166298  0.17889064  0.96129496     0.20000
C342        C  0.28881438  0.19063672  0.97603354     0.25030
C343        C  0.28002631  0.23593858  0.97934241    -0.22960
C344        C  0.30186258  0.26917442  0.96558482     0.19930
F345        F  0.29371973  0.31331292  0.96826618    -0.12920
F346        F  0.35612851  0.29054335  0.93863807    -0.15280
F347        F  0.26763210  0.15789564  0.98864027    -0.15280
F348        F  0.33153103  0.13490895  0.96027460    -0.12920
C349        C  0.17668470  0.53159509  0.03468023     0.25090
C350        C  0.19486544  0.49479345  0.02347317    -0.23020
C351        C  0.18175431  0.45121578  0.03042299     0.20000
C352        C  0.15005516  0.44465428  0.04707621     0.25030
C353        C  0.12768543  0.48136734  0.05496398    -0.22960
C354        C  0.14255674  0.52496164  0.04999264     0.19930
F355        F  0.12207678  0.06101130  0.05797709    -0.12920
F356        F  0.18978780  0.07402644  0.02924309    -0.15280
F357        F  0.13898768  0.40203051  0.05392486    -0.15280
F358        F  0.19716203  0.41487802  0.01945820    -0.12920
C359        C  0.31319806  0.53950024  0.02447274     0.25090
C360        C  0.28507815  0.50398787  0.02307825    -0.23020
C361        C  0.28755893  0.46784704  0.04069209     0.20000
C362        C  0.31892702  0.46582724  0.05794621     0.25030
C363        C  0.35005443  0.49779962  0.05668925    -0.22960
C364        C  0.34593738  0.53601786  0.04088186     0.19930
F365        F  0.37594466  0.06718675  0.03924700    -0.12920
F366        F  0.31142610  0.07531346  0.00809155    -0.15280
F367        F  0.32189825  0.42937864  0.07384943    -0.15280
F368        F  0.26357005  0.43135416  0.03923593    -0.12920
C369        C  0.14176636  0.97705493  0.95127954     0.25090
C370        C  0.12674347  0.02054979  0.94648243    -0.23020
C371        C  0.14904558  0.05740911  0.95435396     0.20000
C372        C  0.18108893  0.05099549  0.97069844     0.25030
C373        C  0.19431375  0.00747671  0.97750512    -0.22960
C374        C  0.17603862  0.97059234  0.96639151     0.19930
F375        F  0.18925673  0.42822984  0.97169978    -0.12920
F376        F  0.12132062  0.44090174  0.94330655    -0.15280
F377        F  0.19687560  0.08740061  0.98145185    -0.15280
F378        F  0.13772855  0.09998262  0.94771593    -0.12920
C379        C  0.31168144  0.96190857  0.97481542     0.25090
C380        C  0.28419392  0.99776937  0.97669268    -0.23020
C381        C  0.28671518  0.03410040  0.95919495     0.20000
C382        C  0.31787025  0.03615484  0.94173165     0.25030
C383        C  0.34865386  0.00388225  0.94261744    -0.22960
C384        C  0.34415559  0.96530770  0.95813803     0.19930
F385        F  0.37372570  0.93374880  0.95933379    -0.12920
F386        F  0.30967390  0.42584030  0.99102901    -0.15280
F387        F  0.32118125  0.07299742  0.92611776    -0.15280
F388        F  0.26308254  0.07071181  0.96100396    -0.12920
C389        C  0.12192940  0.45748840  0.68523437     0.25090
C390        C  0.15318516  0.98878854  0.68836768    -0.23020
C391        C  0.17497286  0.48733031  0.71077306     0.20000
C392        C  0.16456856  0.45669945  0.73001561     0.25030
C393        C  0.13201396  0.42691281  0.72749073    -0.22960
C394        C  0.11105942  0.42703914  0.70477575     0.19930
F395        F  0.07875848  0.39954200  0.70200417    -0.12920
F396        F  0.10067367  0.95793193  0.66374616    -0.15280
F397        F  0.18595294  0.45666685  0.75147159    -0.15280
F398        F  0.20655239  0.01564171  0.71413971    -0.12920
C399        C  0.10919929  0.26768518  0.70158350     0.25090
C400        C  0.14833598  0.26818077  0.69162140    -0.23020
C401        C  0.17705413  0.29870654  0.70026865     0.20000
C402        C  0.16690840  0.32779907  0.71899050     0.25030
C403        C  0.12764209  0.32729990  0.72907063    -0.22960
C404        C  0.09884668  0.29714249  0.72005201     0.19930
F405        F  0.06067642  0.29594379  0.72937601    -0.12920
F406        F  0.08106324  0.23853835  0.69346976    -0.15280
F407        F  0.19594195  0.35474824  0.72812729    -0.15280
F408        F  0.21544252  0.29901480  0.69127175    -0.12920
C409        C  0.37808930  0.99165779  0.69744195     0.25090
C410        C  0.33917237  0.99218406  0.68732221    -0.23020
C411        C  0.31017901  0.46076924  0.69615926     0.20000
C412        C  0.31968978  0.43004898  0.71558259     0.25030
C413        C  0.35850243  0.43009076  0.72614245    -0.22960
C414        C  0.38780872  0.46062332  0.71662967     0.19930
F415        F  0.42562759  0.46106132  0.72638911    -0.12920
F416        F  0.40634412  0.02183420  0.68909612    -0.15280
F417        F  0.29038515  0.40225554  0.72504525    -0.15280
F418        F  0.27207373  0.46139119  0.68678286    -0.12920
C419        C  0.31303863  0.26929489  0.71469407     0.25090
C420        C  0.33665556  0.26733892  0.69313065    -0.23020
C421        C  0.36822830  0.29841033  0.68898303     0.20000
C422        C  0.37750000  0.32948933  0.70688413     0.25030
C423        C  0.35452261  0.33040574  0.72879546    -0.22960
C424        C  0.32181718  0.30061866  0.73227061     0.19930
F425        F  0.29852850  0.30155256  0.75296806    -0.12920
F426        F  0.28085498  0.24146034  0.71860424    -0.15280
F427        F  0.40988580  0.35712840  0.70337466    -0.15280
F428        F  0.39077749  0.29764923  0.66798023    -0.12920
C429        C  0.12269073  0.04506816  0.31559513     0.25090
C430        C  0.15475746  0.51503493  0.31222768    -0.23020
C431        C  0.17633883  0.51749356  0.28970794     0.20000
C432        C  0.16498291  0.04785522  0.27058223     0.25030
C433        C  0.13163803  0.07629925  0.27334741    -0.22960
C434        C  0.11085618  0.07519246  0.29617008     0.19930
F435        F  0.07781201  0.10134687  0.29916192    -0.12920
F436        F  0.10154324  0.04357431  0.33717432    -0.15280
F437        F  0.18619349  0.04886339  0.24901226    -0.15280
F438        F  0.20856165  0.49033284  0.28609469    -0.12920
C439        C  0.17838353  0.21085404  0.29634135     0.25090
C440        C  0.14868360  0.23736228  0.30726660    -0.23020
C441        C  0.10804972  0.23206832  0.30071339     0.20000
C442        C  0.09728490  0.20154420  0.28287807     0.25030
C443        C  0.12703554  0.17568089  0.27147472    -0.22960
C444        C  0.16766126  0.18022852  0.27853903     0.19930
F445        F  0.19704115  0.15636078  0.26750152    -0.12920
F446        F  0.21788551  0.21532806  0.30262089    -0.15280
F447        F  0.05775370  0.19732864  0.27661132    -0.15280
F448        F  0.07887528  0.25652304  0.31154956    -0.12920
C449        C  0.31103688  0.54177028  0.30536096     0.25090
C450        C  0.34094085  0.51184341  0.31442941    -0.23020
C451        C  0.37970340  0.01329249  0.30401226     0.20000
C452        C  0.38835233  0.04368503  0.28428556     0.25030
C453        C  0.35816088  0.07270247  0.27459988    -0.22960
C454        C  0.31953550  0.07194104  0.28546941     0.19930
F455        F  0.28952651  0.09848723  0.27593367    -0.12920
F456        F  0.27303227  0.54007513  0.31494875    -0.15280
F457        F  0.42604706  0.04422767  0.27426155    -0.15280
F458        F  0.40880829  0.98451299  0.31254761    -0.12920
C459        C  0.37651566  0.17246933  0.29392289     0.25090
C460        C  0.35363701  0.17227232  0.27197644    -0.23020
C461        C  0.32215332  0.20345149  0.26835041     0.20000
C462        C  0.31470092  0.23552623  0.28570195     0.25030
C463        C  0.33799724  0.23642929  0.30740081    -0.22960
C464        C  0.36818510  0.20394815  0.31175304     0.19930
F465        F  0.39037706  0.20372128  0.33288816    -0.12920
F466        F  0.40810125  0.14390729  0.29749337    -0.15280
F467        F  0.28410889  0.26518373  0.28139972    -0.15280
F468        F  0.29901955  0.20341087  0.24759528    -0.12920
C469        C  0.08992359  0.19891051  0.54009579     0.25090
C470        C  0.10635360  0.23551067  0.55226563    -0.23020
C471        C  0.08547153  0.27661495  0.55103290     0.20000
C472        C  0.05158656  0.28209892  0.53537199     0.25030
C473        C  0.03874213  0.24653174  0.52090128    -0.22960
C474        C  0.05707377  0.20449720  0.52434525     0.19930
F475        F  0.04461660  0.16915136  0.51127909    -0.12920
F476        F  0.10671705  0.15763860  0.54263654    -0.15280
F477        F  0.03294440  0.32259172  0.53323239    -0.15280
F478        F  0.09939857  0.31205299  0.56346843    -0.12920
C479        C  0.39260124  0.28740984  0.54481999     0.25090
C480        C  0.38792812  0.24770232  0.55933945    -0.23020
C481        C  0.41719708  0.21377917  0.55813115     0.20000
C482        C  0.44754682  0.21671344  0.54006305     0.25030
C483        C  0.44935531  0.25427170  0.52343909    -0.22960
C484        C  0.42325852  0.29072748  0.52698100     0.19930
F485        F  0.42503979  0.32785458  0.51156980    -0.12920
F486        F  0.36462333  0.32057406  0.54579733    -0.15280
F487        F  0.47194186  0.18082994  0.53707666    -0.15280
F488        F  0.41383154  0.17585119  0.57288885    -0.12920
C489        C  0.08405671  0.30849457  0.45316400     0.25090
C490        C  0.10068274  0.27084227  0.44213925    -0.23020
C491        C  0.08005533  0.22964633  0.44441504     0.20000
C492        C  0.04689707  0.22493069  0.46066455     0.25030
C493        C  0.03533501  0.26108522  0.47505439    -0.22960
C494        C  0.05254361  0.30342881  0.47004582     0.19930
F495        F  0.04086748  0.33929782  0.48293181    -0.12920
F496        F  0.10034739  0.34987277  0.44897101    -0.15280
F497        F  0.02824871  0.18447429  0.46373145    -0.15280
F498        F  0.09407904  0.19332080  0.43281923    -0.12920
C499        C  0.44319644  0.28648927  0.45993960     0.25090
C500        C  0.44680986  0.24973191  0.47698391    -0.23020
C501        C  0.42129353  0.21225427  0.47461605     0.20000
C502        C  0.38972637  0.21368165  0.45740365     0.25030
C503        C  0.38370098  0.25237708  0.44225381    -0.22960
C504        C  0.41206091  0.28747514  0.44246966     0.19930
F505        F  0.40688331  0.32484031  0.42748003    -0.12920
F506        F  0.46676985  0.32342200  0.46187757    -0.15280
F507        F  0.36243496  0.17956106  0.45750240    -0.15280
F508        F  0.42490064  0.17573635  0.49036203    -0.12920
C509        C  0.05130835  0.00389532  0.54217974     0.25090
C510        C  0.04181168  0.02403759  0.51881071    -0.23020
C511        C  0.06678165  0.05841234  0.50908330     0.20000
C512        C  0.10334644  0.06802848  0.52027826     0.25030
C513        C  0.11427021  0.04719212  0.54332606    -0.22960
C514        C  0.08703969  0.01588251  0.55454059     0.19930
F515        F  0.09576395  0.99541726  0.57683826    -0.12920
F516        F  0.02763975  0.47046977  0.55214319    -0.15280
F517        F  0.12891952  0.09560245  0.50717296    -0.15280
F518        F  0.05790036  0.07948754  0.48695991    -0.12920
C519        C  0.39692205  0.99942929  0.55153978     0.25090
C520        C  0.38600329  0.04500500  0.55057480    -0.23020
C521        C  0.41099550  0.07601315  0.53708601     0.20000
C522        C  0.44359996  0.06141508  0.52313547     0.25030
C523        C  0.45162770  0.01557295  0.52198567    -0.22960
C524        C  0.42932853  0.98479654  0.53718671     0.19930
F525        F  0.43743009  0.44019453  0.53700641    -0.12920
F526        F  0.37444440  0.46860785  0.56475739    -0.15280
F527        F  0.46526862  0.09183253  0.50910330    -0.15280
F528        F  0.40300495  0.12055030  0.53627887    -0.12920
C529        C  0.08652723  0.48593713  0.44617077     0.25090
C530        C  0.11338185  0.45405585  0.45702086    -0.23020
C531        C  0.10217831  0.43242341  0.47987792     0.20000
C532        C  0.06596659  0.44233987  0.49138708     0.25030
C533        C  0.04137206  0.47708975  0.48196781    -0.22960
C534        C  0.05090180  0.49769707  0.45869879     0.19930
F535        F  0.02738982  0.03136730  0.44902946    -0.12920
F536        F  0.09548699  0.00706063  0.42405879    -0.15280
F537        F  0.05712520  0.42115502  0.51352488    -0.15280
F538        F  0.12713620  0.40369298  0.49253768    -0.12920
C539        C  0.40931750  0.42278638  0.46556085     0.25090
C540        C  0.38509956  0.45397285  0.45178070    -0.23020
C541        C  0.39701912  0.49931963  0.45051488     0.20000
C542        C  0.42961676  0.51364278  0.46480673     0.25030
C543        C  0.45128321  0.48277053  0.48017210    -0.22960
C544        C  0.44232569  0.43705317  0.47932142     0.19930
F545        F  0.46371471  0.40652836  0.49332585    -0.12920
F546        F  0.40026388  0.37846719  0.46673299    -0.15280
F547        F  0.43855547  0.55811091  0.46476376    -0.15280
F548        F  0.37540038  0.53030853  0.43697963    -0.12920
C549        C  0.47569562  0.49922916  0.50099839     0.02060
C550        C  0.01668748  0.00042567  0.50051523     0.02060
C551        C  0.47198305  0.75264819  0.49967755     0.02060
C552        C  0.01285435  0.75394667  0.49866815     0.02060
C553        C  0.34623857  0.93935572  0.44069429     0.43950
N554        N  0.29259778  0.93529478  0.41813306     0.02840
C555        C  0.16237540  0.75690362  0.41115456    -0.05030
H556        H  0.33072556  0.72368027  0.39803265     0.08330
C557        C  0.31321903  0.81420160  0.32102512    -0.05390
Co558      Co  0.24694850  0.85134838  0.43155229     0.74180
N559        N  0.28874242  0.77451486  0.40957462    -0.24560
Co560      Co  0.24364806  0.78092402  0.38263546     0.74070
C561        C  0.32792731  0.76845495  0.32635816     0.44050
N562        N  0.28952748  0.92303764  0.34456015     0.02460
N563        N  0.28738988  0.78713471  0.35520169     0.02560
N564        N  0.16907512  0.80270590  0.44301748    -0.45410
H565        H  0.32913519  0.87441087  0.46297323     0.08320
N566        N  0.28935463  0.80173990  0.42809858     0.02850
N567        N  0.20022409  0.78840510  0.35513096     0.02590
C568        C  0.16036226  0.76945933  0.32593219     0.44190
N569        N  0.28931310  0.95058890  0.36304246    -0.24020
C570        C  0.17577217  0.90195592  0.45135219    -0.04940
N571        N  0.32510120  0.96054069  0.42201271    -0.45130
N572        N  0.17727615  0.75532168  0.34756069    -0.45350
C573        C  0.15218222  0.94173074  0.44485575     0.43970
N574        N  0.20146916  0.80418128  0.42883702     0.02840
N575        N  0.20294167  0.95221915  0.36299278    -0.24040
N576        N  0.29164447  0.89921291  0.43314527    -0.24530
N577        N  0.20214555  0.92430989  0.34461291     0.02480
H578        H  0.17917110  0.01904742  0.36637399     0.08370
H579        H  0.17450879  0.83459714  0.30306447     0.08400
N580        N  0.19863490  0.77792086  0.40992803    -0.24580
N581        N  0.28793788  0.82251517  0.33962832    -0.24200
N582        N  0.20202389  0.93656779  0.41920418     0.02840
C583        C  0.34300916  0.76279414  0.43313569     0.44240
C584        C  0.31424981  0.98502604  0.35746672    -0.05450
N585        N  0.20095628  0.82336861  0.33926264    -0.24190
H586        H  0.31663357  0.83506713  0.30424356     0.08390
N587        N  0.32122372  0.79598748  0.44248728    -0.45420
H588        H  0.31691621  0.01507838  0.36786470     0.08370
C589        C  0.16547319  0.98015111  0.33150210     0.44070
C590        C  0.32336501  0.89940895  0.44831730    -0.04940
Co591      Co  0.24648854  0.94482548  0.39112627     0.73820
N592        N  0.31291428  0.93783271  0.32604617    -0.45130
C593        C  0.14278471  0.77417828  0.43316679     0.44340
N594        N  0.17030293  0.96202177  0.42457472    -0.45120
Co595      Co  0.24511635  0.87350438  0.34183885     0.73890
C596        C  0.17653482  0.81456682  0.32021235    -0.05450
C597        C  0.32182416  0.74818309  0.41115628    -0.05010
N598        N  0.20479278  0.90108587  0.43448522    -0.24540
N599        N  0.31033126  0.75402349  0.34778237    -0.45300
H600        H  0.15017616  0.73530152  0.39743664     0.08350
C601        C  0.18019407  0.98827355  0.35650927    -0.05430
Cl602      Cl  0.24542650  0.86279015  0.38666145    -0.48430
C603        C  0.33022488  0.97638633  0.33295430     0.44100
H604        H  0.17175891  0.87611333  0.46574137     0.08310
N605        N  0.18068129  0.94007885  0.32554141    -0.45140
C606        C  0.34713152  0.56015390  0.56132552     0.43950
N607        N  0.29299186  0.56551979  0.58335758     0.02840
C608        C  0.16552413  0.74747223  0.58557987    -0.05030
H609        H  0.33309864  0.77708716  0.60271945     0.08330
C610        C  0.31061386  0.68973309  0.67977202    -0.05390
Co611      Co  0.24915721  0.64965815  0.56861458     0.74180
N612        N  0.29100416  0.72663434  0.59066163    -0.24560
Co613      Co  0.24424707  0.72190610  0.61674568     0.74070
C614        C  0.32606772  0.73519059  0.67430288     0.44050
N615        N  0.28714805  0.58021224  0.65673169     0.02460
N616        N  0.28654600  0.71618186  0.64503244     0.02560
N617        N  0.17368602  0.70047033  0.55441822    -0.45410
H618        H  0.33147774  0.62451243  0.53827645     0.08320
N619        N  0.29252840  0.69847139  0.57258087     0.02850
N620        N  0.19950566  0.71573300  0.64376074     0.02590
C621        C  0.15985929  0.73606140  0.67284450     0.44190
N622        N  0.28749141  0.55233025  0.63839568    -0.24020
C623        C  0.17759377  0.59890215  0.54842622    -0.04940
N624        N  0.32523011  0.53968962  0.57998396    -0.45130
N625        N  0.17739458  0.74957249  0.65121134    -0.45350
C626        C  0.15322258  0.55962250  0.55530149     0.43970
N627        N  0.20443754  0.69788138  0.56985917     0.02840
N628        N  0.20117582  0.55116898  0.63741467    -0.24040
N629        N  0.29298803  0.60115066  0.56804087    -0.24530
N630        N  0.19976441  0.57962196  0.65551668     0.02480
H631        H  0.17808375  0.48388048  0.63450223     0.08370
H632        H  0.17210401  0.67089039  0.69594073     0.08400
N633        N  0.20078535  0.72486431  0.58839781    -0.24580
N634        N  0.28612118  0.68113769  0.66084778    -0.24200
N635        N  0.20248676  0.56539797  0.58121874     0.02840
C636        C  0.34770326  0.73550158  0.56888032     0.44240
C637        C  0.31234836  0.51814995  0.64428373    -0.05450
N638        N  0.19920471  0.68097140  0.65981703    -0.24190
H639        H  0.31311547  0.66923403  0.69673639     0.08390
N640        N  0.32582927  0.70260747  0.55921005    -0.45420
H641        H  0.31549750  0.48804770  0.63398206     0.08370
C642        C  0.16312545  0.52361789  0.66884883     0.44070
C643        C  0.32502659  0.60008805  0.55314145    -0.04940
Co644      Co  0.24578588  0.55749470  0.60981397     0.73820
N645        N  0.31005910  0.56579953  0.67551086    -0.45130
C646        C  0.14749115  0.73054747  0.56291572     0.44340
N647        N  0.17058098  0.54008386  0.57595531    -0.45120
Co648      Co  0.24302049  0.63031399  0.65840515     0.73890
C649        C  0.17461125  0.69052382  0.67867605    -0.05450
C650        C  0.32474648  0.75215815  0.58970217    -0.05010
N651        N  0.20617534  0.60027683  0.56554697    -0.24540
N652        N  0.30947612  0.74932849  0.65256122    -0.45300
H653        H  0.15306141  0.77049340  0.59848226     0.08350
C654        C  0.17846889  0.51504022  0.64403184    -0.05430
Cl655      Cl  0.24521708  0.63964372  0.61358638    -0.48430
C656        C  0.32767875  0.52729485  0.66882580     0.44100
H657        H  0.17448182  0.62394130  0.53354145     0.08310
N658        N  0.17791415  0.56410045  0.67454633    -0.45140
C659        C  0.26025479  0.50094869  0.00006771     0.02060
C660        C  0.21905901  0.50116405  0.00034829     0.02060
C661        C  0.25596152  0.74899242  0.00117165     0.02060
C662        C  0.21487826  0.74911429  0.00136477     0.02060
C663        C  0.38933579  0.51878711  0.93510041     0.43950
N664        N  0.44274099  0.53349126  0.91385491     0.02840
C665        C  0.06239654  0.72234502  0.91827757    -0.05030
H666        H  0.39697069  0.75037010  0.90401722     0.08330
C667        C  0.42098419  0.68272144  0.82175712    -0.05390
Co668      Co  0.48356189  0.61513587  0.93164320     0.74180
N669        N  0.43882670  0.69622954  0.91271520    -0.24560
Co670      Co  0.48528433  0.70042686  0.88605925     0.74070
C671        C  0.40549485  0.72681603  0.82787409     0.44050
N672        N  0.44604997  0.56834978  0.84154995     0.02460
N673        N  0.44317647  0.70070730  0.85753385     0.02560
N674        N  0.05699444  0.66663280  0.94765855    -0.45410
H675        H  0.39991462  0.57781770  0.96003761     0.08320
N676        N  0.43836477  0.66322619  0.92979204     0.02850
N677        N  0.03002447  0.70291741  0.85875320     0.02590
C678        C  0.07081713  0.73029218  0.83092671     0.44190
N679        N  0.44676184  0.53597004  0.85901751    -0.24020
C680        C  0.05924157  0.56306303  0.94823152    -0.04940
N681        N  0.41142042  0.50540612  0.91567227    -0.45130
N682        N  0.05205236  0.73881157  0.85242127    -0.45350
C683        C  0.08468910  0.52848387  0.93843927     0.43970
N684        N  0.02673060  0.66558287  0.93184567     0.02840
N685        N  0.03333984  0.53771535  0.85965345    -0.24040
N686        N  0.44137705  0.56449673  0.93049857    -0.24530
N687        N  0.03349384  0.57009092  0.84214427     0.02480
H688        H  0.05885389  0.47121677  0.86161532     0.08370
H689        H  0.06077950  0.67031844  0.80638962     0.08400
N690        N  0.02883613  0.69773627  0.91435604    -0.24580
N691        N  0.44461563  0.66975468  0.84080392    -0.24200
N692        N  0.03251177  0.53728600  0.91530027     0.02840
C693        C  0.38374348  0.69954158  0.93663379     0.44240
C694        C  0.42223631  0.50281717  0.85253736    -0.05450
N695        N  0.03150308  0.67201101  0.84195396    -0.24190
H696        H  0.41988417  0.66669917  0.80419861     0.08390
N697        N  0.40625871  0.66404397  0.94438415    -0.45420
H698        H  0.41987204  0.47017274  0.86204681     0.08370
C699        C  0.07186185  0.51864632  0.82785864     0.44070
C700        C  0.40903851  0.55759695  0.94489899    -0.04940
Co701      Co  0.48906221  0.53521410  0.88721117     0.73660
N702        N  0.42289773  0.55806586  0.82263788    -0.45130
C703        C  0.08126219  0.70114133  0.94057783     0.44340
N704        N  0.06639245  0.51350469  0.91794901    -0.45120
Co705      Co  0.48894183  0.61999582  0.84142074     0.73890
C706        C  0.05695354  0.68608464  0.82387885    -0.05450
C707        C  0.40549110  0.72143323  0.91563836    -0.05010
N708        N  0.02856334  0.56716525  0.93242492    -0.24540
N709        N  0.42079314  0.73565530  0.85028921    -0.45300
H710        H  0.07265102  0.75043954  0.90654329     0.08350
C711        C  0.05727775  0.50427845  0.85252927    -0.05430
Cl712      Cl  0.48688394  0.61775805  0.88642605    -0.48430
C713        C  0.40612018  0.51755197  0.82846749     0.44100
H714        H  0.06425294  0.58341437  0.96395792     0.08310
N715        N  0.05542486  0.55953253  0.82271423    -0.45140
C716        C  0.11778978  0.90016858  0.74992151     0.02060
C717        C  0.11726892  0.85414847  0.75093238     0.02060
C718        C  0.36740258  0.85710262  0.74998043     0.02060
C719        C  0.36757959  0.90278548  0.74911685     0.02060
C720        C  0.11580181  0.64857466  0.25002809     0.02060
C721        C  0.11651986  0.60272034  0.25112151     0.02060
C722        C  0.36608963  0.64562324  0.25066291     0.02060
C723        C  0.36645664  0.59995844  0.25148922     0.02060
C724        C  0.39050491  0.98298115  0.06452810     0.43950
N725        N  0.44310546  0.96843379  0.08640778     0.02840
C726        C  0.06233572  0.77932972  0.08411801    -0.05030
H727        H  0.39716657  0.75110655  0.09746850     0.08330
C728        C  0.41755308  0.82126194  0.17876915    -0.05390
Co729      Co  0.48413495  0.88634042  0.06946984     0.74180
N730        N  0.43893323  0.80542229  0.08855274    -0.24560
Co731      Co  0.48449508  0.80202063  0.11553844     0.74070
C732        C  0.40233190  0.77689263  0.17281583     0.44050
N733        N  0.44406232  0.93488078  0.15890689     0.02460
N734        N  0.44146169  0.80225414  0.14357921     0.02560
N735        N  0.05792249  0.83445378  0.05435932    -0.45410
H736        H  0.40135105  0.92320817  0.04015241     0.08320
N737        N  0.43873468  0.83807435  0.07127086     0.02850
N738        N  0.02841309  0.80025886  0.14313150     0.02590
C739        C  0.06863543  0.77336941  0.17123961     0.44190
N740        N  0.44544481  0.96706324  0.14133911    -0.24020
C741        C  0.06034818  0.93820928  0.05326063    -0.04940
N742        N  0.41205776  0.99663373  0.08409062    -0.45130
N743        N  0.05056527  0.76468960  0.14959520    -0.45350
C744        C  0.08560127  0.97306821  0.06301407     0.43970
N745        N  0.02728045  0.83591930  0.06993843     0.02840
N746        N  0.03201578  0.96512263  0.14149344    -0.24040
N747        N  0.44204753  0.93704440  0.06996379    -0.24530
N748        N  0.03145353  0.93304174  0.15916979     0.02480
H749        H  0.05810029  0.03148439  0.13942090     0.08370
H750        H  0.05738464  0.83313165  0.19576676     0.08400
N751        N  0.02882429  0.80412433  0.08763761    -0.24580
N752        N  0.44222651  0.83362611  0.16006655    -0.24200
N753        N  0.03283859  0.96461755  0.08581013     0.02840
C754        C  0.38441354  0.80103712  0.06447748     0.44240
C755        C  0.42107181  0.00046880  0.14757294    -0.05450
N756        N  0.02917888  0.83117965  0.15992492    -0.24190
H757        H  0.41562118  0.83783067  0.19613852     0.08390
N758        N  0.40685599  0.83666277  0.05655019    -0.45420
H759        H  0.41925762  0.03306492  0.13797692     0.08370
C760        C  0.06975153  0.98450995  0.17350951     0.44070
C761        C  0.41017510  0.94376365  0.05522064    -0.04940
Co762      Co  0.48857309  0.96723398  0.11350344     0.73820
N763        N  0.42055783  0.94549872  0.17761218    -0.45130
C764        C  0.08185069  0.80001124  0.06183452     0.44340
N765        N  0.06680561  0.98847529  0.08324976    -0.45120
Co766      Co  0.48675222  0.88321528  0.15970588     0.73890
C767        C  0.05407459  0.81729044  0.17826426    -0.05450
C768        C  0.40580602  0.77983293  0.08567486    -0.05010
N769        N  0.02926544  0.93437758  0.06883907    -0.24540
N770        N  0.41860017  0.76752063  0.15071765    -0.45300
H771        H  0.07212628  0.75140424  0.09608056     0.08350
C772        C  0.05598014  0.99857936  0.14865880    -0.05430
Cl773      Cl  0.48609768  0.88470440  0.11465882    -0.48430
C774        C  0.40427706  0.98608471  0.17158981     0.44100
H775        H  0.06567145  0.91757337  0.03768399     0.08310
N776        N  0.05286181  0.94382382  0.17874589    -0.45140
C777        C  0.42331712  0.54663593  0.19948797     0.25090
C778        C  0.39367186  0.01746453  0.19066867    -0.23020
C779        C  0.35479791  0.01716313  0.20094631     0.20000
C780        C  0.34566981  0.54544027  0.22012007     0.25030
C781        C  0.37544664  0.57415452  0.22928680    -0.22960
C782        C  0.41430634  0.57474542  0.21874853     0.19930
F783        F  0.44395797  0.60087396  0.22789547    -0.12920
F784        F  0.46145039  0.54653395  0.19008807    -0.15280
F785        F  0.30783754  0.54455357  0.22995315    -0.15280
F786        F  0.32589934  0.98918922  0.19257344    -0.12920
C787        C  0.36333453  0.70916840  0.18825050     0.25090
C788        C  0.39412035  0.74085393  0.19166867    -0.23020
C789        C  0.41868877  0.73674550  0.21288079     0.20000
C790        C  0.41124299  0.70309509  0.23094678     0.25030
C791        C  0.37882430  0.67319312  0.22843736    -0.22960
C792        C  0.35533516  0.67573390  0.20671664     0.19930
F793        F  0.32328588  0.64780656  0.20411030    -0.12920
F794        F  0.33998932  0.71188242  0.16758568    -0.15280
F795        F  0.43498565  0.70059325  0.25146316    -0.15280
F796        F  0.45013963  0.76522762  0.21621829    -0.12920
C797        C  0.12369107  0.57664886  0.20721847     0.25090
C798        C  0.10288252  0.57559808  0.23001833    -0.23020
C799        C  0.07102352  0.54476015  0.23387794     0.20000
C800        C  0.06058160  0.01501086  0.21563065     0.25030
C801        C  0.08158122  0.01564570  0.19292420    -0.22960
C802        C  0.11272172  0.54729758  0.18869986     0.19930
F803        F  0.13345471  0.54868381  0.16696644    -0.12920
F804        F  0.15574937  0.60458607  0.20329772    -0.15280
F805        F  0.02925815  0.98618603  0.22004998    -0.15280
F806        F  0.04999094  0.54334005  0.25551267    -0.12920
C807        C  0.12192794  0.73343142  0.19598833     0.25090
C808        C  0.08124635  0.73757357  0.18916973    -0.23020
C809        C  0.05216886  0.70917596  0.20075824     0.20000
C810        C  0.06353044  0.67817944  0.21972674     0.25030
C811        C  0.10414241  0.67519675  0.22722605    -0.22960
C812        C  0.13333940  0.70242696  0.21486021     0.19930
F813        F  0.17288927  0.69957793  0.22144042    -0.12920
F814        F  0.15043590  0.76012724  0.18472624    -0.15280
F815        F  0.03468720  0.65291937  0.23166734    -0.15280
F816        F  0.01255617  0.71291541  0.19442694    -0.12920
C817        C  0.07435772  0.96021817  0.76691976     0.25090
C818        C  0.10453377  0.92753730  0.77111260    -0.23020
C819        C  0.12404813  0.92493851  0.79432066     0.20000
C820        C  0.11326373  0.95430898  0.81290139     0.25030
C821        C  0.08381310  0.48768734  0.80833458    -0.22960
C822        C  0.06431636  0.49007098  0.78517110     0.19930
F823        F  0.03470042  0.52069259  0.78027310    -0.12920
F824        F  0.05445303  0.96331653  0.74493816    -0.15280
F825        F  0.13252891  0.95112528  0.83508538    -0.15280
F826        F  0.15464077  0.89535019  0.79866514    -0.12920
C827        C  0.13435942  0.79541938  0.78375806     0.25090
C828        C  0.10642821  0.82706989  0.77390471    -0.23020
C829        C  0.06741010  0.82863162  0.78425913     0.20000
C830        C  0.05643147  0.79848073  0.80379347     0.25030
C831        C  0.08405138  0.76590533  0.81292045    -0.22960
C832        C  0.12311686  0.76486573  0.80293959     0.19930
F833        F  0.15011965  0.73359131  0.81145532    -0.12920
F834        F  0.17238975  0.79343838  0.77434795    -0.15280
F835        F  0.01806651  0.79927309  0.81278336    -0.15280
F836        F  0.03923846  0.85734504  0.77447960    -0.12920
C837        C  0.42501742  0.45708976  0.80052741     0.25090
C838        C  0.39548644  0.48631939  0.80933984    -0.23020
C839        C  0.35651552  0.98630263  0.79929939     0.20000
C840        C  0.34713321  0.95755326  0.78039493     0.25030
C841        C  0.37676838  0.92872768  0.77123722    -0.22960
C842        C  0.41577181  0.92855672  0.78150324     0.19930
F843        F  0.44534570  0.90249869  0.77227952    -0.12920
F844        F  0.46322624  0.45746273  0.80974176    -0.15280
F845        F  0.30921100  0.95817921  0.77076410    -0.15280
F846        F  0.32775756  0.51438315  0.80765618    -0.12920
C847        C  0.41395924  0.80148290  0.76996112     0.25090
C848        C  0.38041560  0.82978493  0.77219382    -0.23020
C849        C  0.35658603  0.82634152  0.79380103     0.20000
C850        C  0.36518619  0.79329835  0.81234487     0.25030
C851        C  0.39718757  0.76312858  0.80921434    -0.22960
C852        C  0.42232749  0.76851557  0.78826063     0.19930
F853        F  0.45516018  0.74189485  0.78542538    -0.12920
F854        F  0.43806728  0.80502780  0.74958298    -0.15280
F855        F  0.34127981  0.78941862  0.83278496    -0.15280
F856        F  0.32373962  0.85304976  0.79623224    -0.12920
C857        C  0.14701843  0.75528229  0.05750104     0.25090
C858        C  0.12078084  0.79006942  0.04915591    -0.23020
C859        C  0.13173580  0.81597918  0.02763508     0.20000
C860        C  0.16647540  0.80627029  0.01437109     0.25030
C861        C  0.19037354  0.76906505  0.02125681    -0.22960
C862        C  0.18145845  0.74469619  0.04352795     0.19930
F863        F  0.20427664  0.70863703  0.05073451    -0.12920
F864        F  0.13850897  0.73003090  0.07836955    -0.15280
F865        F  0.17482376  0.83109051  0.99329285    -0.15280
F866        F  0.10776762  0.84957413  0.01831590    -0.12920
C867        C  0.32161949  0.82033740  0.04045834     0.25090
C868        C  0.34624013  0.78754407  0.05246708    -0.23020
C869        C  0.33577729  0.74203605  0.05092329     0.20000
C870        C  0.30341548  0.72958032  0.03596791     0.25030
C871        C  0.28056653  0.76238328  0.02266830    -0.22960
C872        C  0.28864682  0.80787568  0.02604593     0.19930
F873        F  0.26659584  0.84019212  0.01382310    -0.12920
F874        F  0.33063790  0.86454611  0.04168295    -0.15280
F875        F  0.29599770  0.68526578  0.03324220    -0.15280
F876        F  0.35892884  0.70941151  0.06201804    -0.12920
C877        C  0.18168997  0.75434150  0.95923714     0.25090
C878        C  0.18983341  0.72981273  0.98153970    -0.23020
C879        C  0.16494380  0.69329604  0.98844698     0.20000
C880        C  0.13015702  0.68434913  0.97507998     0.25030
C881        C  0.12008515  0.71040867  0.95348107    -0.22960
C882        C  0.14717272  0.74455132  0.94519100     0.19930
F883        F  0.13950342  0.76989136  0.92425929    -0.12920
F884        F  0.20537421  0.78984293  0.95205572    -0.15280
F885        F  0.10536737  0.65127200  0.98431168    -0.15280
F886        F  0.17247836  0.66837264  0.00957792    -0.12920
C887        C  0.33401305  0.75741931  0.95023579     0.25090
C888        C  0.34538891  0.71220164  0.94881787    -0.23020
C889        C  0.32166675  0.67889156  0.96129792     0.20000
C890        C  0.28881800  0.69063825  0.97603618     0.25030
C891        C  0.28002725  0.73594031  0.97934236    -0.22960
C892        C  0.30186101  0.76917517  0.96558247     0.19930
F893        F  0.29371521  0.81331378  0.96826089    -0.12920
F894        F  0.35612455  0.79054293  0.93863367    -0.15280
F895        F  0.26763773  0.65789794  0.98864489    -0.15280
F896        F  0.33153710  0.63491009  0.96028007    -0.12920
C897        C  0.17668658  0.03159560  0.03468079     0.25090
C898        C  0.19486677  0.99479375  0.02347363    -0.23020
C899        C  0.18175537  0.95121623  0.03042350     0.20000
C900        C  0.15005617  0.94465511  0.04707672     0.25030
C901        C  0.12768680  0.98136847  0.05496448    -0.22960
C902        C  0.14255862  0.02496258  0.04999322     0.19930
F903        F  0.12207445  0.56101011  0.05797643    -0.12920
F904        F  0.18978534  0.57402612  0.02924244    -0.15280
F905        F  0.13898815  0.90203145  0.05392527    -0.15280
F906        F  0.19716266  0.91487832  0.01945866    -0.12920
C907        C  0.31319788  0.03949989  0.02447360     0.25090
C908        C  0.28507886  0.00398679  0.02307875    -0.23020
C909        C  0.28756016  0.96784559  0.04069231     0.20000
C910        C  0.31892825  0.96582598  0.05794642     0.25030
C911        C  0.35005473  0.99779959  0.05669005    -0.22960
C912        C  0.34593687  0.03601821  0.04088300     0.19930
F913        F  0.37594598  0.56718539  0.03924539    -0.12920
F914        F  0.31142673  0.57531376  0.00809066    -0.15280
F915        F  0.32190064  0.92937630  0.07384882    -0.15280
F916        F  0.26357189  0.93135225  0.03923574    -0.12920
C917        C  0.14176604  0.47705398  0.95127884     0.25090
C918        C  0.12674329  0.52054875  0.94648133    -0.23020
C919        C  0.14904535  0.55740827  0.95435267     0.20000
C920        C  0.18108822  0.55099501  0.97069753     0.25030
C921        C  0.19431283  0.50747635  0.97750463    -0.22960
C922        C  0.17603803  0.47059172  0.96639107     0.19930
F923        F  0.18925733  0.92823037  0.97169994    -0.12920
F924        F  0.12132091  0.94090288  0.94330705    -0.15280
F925        F  0.19687409  0.58740034  0.98145113    -0.15280
F926        F  0.13772837  0.59998167  0.94771432    -0.12920
C927        C  0.31167854  0.46191001  0.97481375     0.25090
C928        C  0.28419238  0.49777176  0.97669212    -0.23020
C929        C  0.28671484  0.53410444  0.95919554     0.20000
C930        C  0.31787003  0.53615950  0.94173235     0.25030
C931        C  0.34865239  0.50388538  0.94261702    -0.22960
C932        C  0.34415267  0.46530935  0.95813632     0.19930
F933        F  0.37372147  0.43374889  0.95933091    -0.12920
F934        F  0.30967804  0.92584022  0.99103164    -0.15280
F935        F  0.32118246  0.57300376  0.92611982    -0.15280
F936        F  0.26308341  0.57071654  0.96100579    -0.12920
C937        C  0.12192984  0.95748870  0.68523442     0.25090
C938        C  0.15318450  0.48878846  0.68836777    -0.23020
C939        C  0.17497359  0.98733045  0.71077296     0.20000
C940        C  0.16456916  0.95669986  0.73001561     0.25030
C941        C  0.13201438  0.92691342  0.72749086    -0.22960
C942        C  0.11105973  0.92703971  0.70477591     0.19930
F943        F  0.07875860  0.89954280  0.70200446    -0.12920
F944        F  0.10067333  0.45793166  0.66374607    -0.15280
F945        F  0.18595362  0.95666733  0.75147157    -0.15280
F946        F  0.20655147  0.51564177  0.71413994    -0.12920
C947        C  0.10919887  0.76768611  0.70158353     0.25090
C948        C  0.14833555  0.76818134  0.69162141    -0.23020
C949        C  0.17705394  0.79870684  0.70026866     0.20000
C950        C  0.16690846  0.82779945  0.71899053     0.25030
C951        C  0.12764217  0.82730060  0.72907069    -0.22960
C952        C  0.09884652  0.79714349  0.72005206     0.19930
F953        F  0.06067627  0.79594511  0.72937607    -0.12920
F954        F  0.08106259  0.73853954  0.69346980    -0.15280
F955        F  0.19594222  0.85474836  0.72812732    -0.15280
F956        F  0.21544231  0.79901476  0.69127174    -0.12920
C957        C  0.37808885  0.49165782  0.69744209     0.25090
C958        C  0.33917179  0.49218428  0.68732254    -0.23020
C959        C  0.31017948  0.96076919  0.69615899     0.20000
C960        C  0.31969005  0.93004921  0.71558249     0.25030
C961        C  0.35850262  0.93009107  0.72614247    -0.22960
C962        C  0.38780899  0.96062354  0.71662969     0.19930
F963        F  0.42562776  0.96106169  0.72638927    -0.12920
F964        F  0.40634362  0.52183426  0.68909624    -0.15280
F965        F  0.29038530  0.90225597  0.72504520    -0.15280
F966        F  0.27207427  0.96139108  0.68678249    -0.12920
C967        C  0.31303794  0.76929532  0.71469428     0.25090
C968        C  0.33665469  0.76733934  0.69313079    -0.23020
C969        C  0.36822749  0.79841066  0.68898312     0.20000
C970        C  0.37749941  0.82948959  0.70688421     0.25030
C971        C  0.35452216  0.83040605  0.72879560    -0.22960
C972        C  0.32181669  0.80061905  0.73227082     0.19930
F973        F  0.29852815  0.80155298  0.75296833    -0.12920
F974        F  0.28085428  0.74146081  0.71860454    -0.15280
F975        F  0.40988527  0.85712854  0.70337468    -0.15280
F976        F  0.39077656  0.79764951  0.66798027    -0.12920
C977        C  0.12268002  0.54505884  0.31559332     0.25090
C978        C  0.15476029  0.01503505  0.31222691    -0.23020
C979        C  0.17633449  0.01748488  0.28970450     0.20000
C980        C  0.16498692  0.54786353  0.27058543     0.25030
C981        C  0.13163496  0.57629836  0.27334798    -0.22960
C982        C  0.11084570  0.57518295  0.29616817     0.19930
F983        F  0.07779509  0.60132866  0.29915719    -0.12920
F984        F  0.10152510  0.54355574  0.33716983    -0.15280
F985        F  0.18620415  0.54888021  0.24901783    -0.15280
F986        F  0.20855035  0.99031559  0.28608838    -0.12920
C987        C  0.17838610  0.71087168  0.29633072     0.25090
C988        C  0.14868299  0.73736265  0.30726527    -0.23020
C989        C  0.10804666  0.73204841  0.30072264     0.20000
C990        C  0.09728235  0.70152386  0.28288731     0.25030
C991        C  0.12703586  0.67567868  0.27147441    -0.22960
C992        C  0.16766416  0.68024410  0.27852937     0.19930
F993        F  0.19704583  0.65639003  0.26748466    -0.12920
F994        F  0.21789011  0.71536278  0.30260139    -0.15280
F995        F  0.05774879  0.69728991  0.27663023    -0.15280
F996        F  0.07886939  0.75648423  0.31156888    -0.12920
C997        C  0.31103618  0.04176262  0.30535819     0.25090
C998        C  0.34094249  0.01184215  0.31443030    -0.23020
C999        C  0.37969854  0.51328579  0.30400680     0.20000
C1000       C  0.38834679  0.54367772  0.28427975     0.25030
C1001       C  0.35815743  0.57270186  0.27459773    -0.22960
C1002       C  0.31953501  0.57194723  0.28547129     0.19930
F1003       F  0.28952716  0.59849860  0.27593872    -0.12920
F1004       F  0.27302888  0.04006003  0.31494178    -0.15280
F1005       F  0.42603872  0.54421327  0.27425185    -0.15280
F1006       F  0.40880088  0.48449941  0.31253820    -0.12920
C1007       C  0.37650913  0.67246445  0.29392301     0.25090
C1008       C  0.35363382  0.67227281  0.27197507    -0.23020
C1009       C  0.32215517  0.70345795  0.26834771     0.20000
C1010       C  0.31470494  0.73553317  0.28569922     0.25030
C1011       C  0.33799695  0.73642971  0.30740006    -0.22960
C1012       C  0.36817950  0.70394286  0.31175355     0.19930
F1013       F  0.39036759  0.70371007  0.33289032    -0.12920
F1014       F  0.40809102  0.64389773  0.29749468    -0.15280
F1015       F  0.28411908  0.76519764  0.28139480    -0.15280
F1016       F  0.29902467  0.70342312  0.24759106    -0.12920
C1017       C  0.08992492  0.69891124  0.54009320     0.25090
C1018       C  0.10635360  0.73551057  0.55226440    -0.23020
C1019       C  0.08546992  0.77661393  0.55103308     0.20000
C1020       C  0.05158473  0.78209810  0.53537228     0.25030
C1021       C  0.03874143  0.74653191  0.52090049    -0.22960
C1022       C  0.05707464  0.70449801  0.52434307     0.19930
F1023       F  0.04461840  0.66915293  0.51127600    -0.12920
F1024       F  0.10671984  0.65763995  0.54263234    -0.15280
F1025       F  0.03294109  0.82259018  0.53323398    -0.15280
F1026       F  0.09939534  0.81205100  0.56347004    -0.12920
C1027       C  0.39260047  0.78740933  0.54482019     0.25090
C1028       C  0.38792792  0.74770190  0.55933980    -0.23020
C1029       C  0.41719723  0.71377909  0.55813145     0.20000
C1030       C  0.44754670  0.71671353  0.54006315     0.25030
C1031       C  0.44935444  0.75427156  0.52343901    -0.22960
C1032       C  0.42325739  0.79072708  0.52698098     0.19930
F1033       F  0.42503807  0.82785404  0.51156966    -0.12920
F1034       F  0.36462229  0.82057326  0.54579759    -0.15280
F1035       F  0.47194231  0.68083045  0.53707680    -0.15280
F1036       F  0.41383236  0.67585132  0.57288937    -0.12920
C1037       C  0.08405553  0.80849576  0.45316385     0.25090
C1038       C  0.10068070  0.77084361  0.44213847    -0.23020
C1039       C  0.08005232  0.72964820  0.44441362     0.20000
C1040       C  0.04689407  0.72493264  0.46066315     0.25030
C1041       C  0.03533316  0.76108663  0.47505374    -0.22960
C1042       C  0.05254253  0.80342997  0.47004572     0.19930
F1043       F  0.04086721  0.83929855  0.48293235    -0.12920
F1044       F  0.10034700  0.84987371  0.44897143    -0.15280
F1045       F  0.02824468  0.68447671  0.46372938    -0.15280
F1046       F  0.09407504  0.69332294  0.43281714    -0.12920
C1047       C  0.44319463  0.78648829  0.45993929     0.25090
C1048       C  0.44680826  0.74973133  0.47698384    -0.23020
C1049       C  0.42129220  0.71225340  0.47461622     0.20000
C1050       C  0.38972516  0.71368004  0.45740373     0.25030
C1051       C  0.38369946  0.75237510  0.44225364    -0.22960
C1052       C  0.41205904  0.78747358  0.44246939     0.19930
F1053       F  0.40688093  0.82483866  0.42747975    -0.12920
F1054       F  0.46676801  0.82342114  0.46187695    -0.15280
F1055       F  0.36243407  0.67955911  0.45750264    -0.15280
F1056       F  0.42489956  0.67573582  0.49036242    -0.12920
C1057       C  0.05130820  0.50389489  0.54217998     0.25090
C1058       C  0.04181144  0.52403740  0.51881102    -0.23020
C1059       C  0.06678154  0.55841201  0.50908360     0.20000
C1060       C  0.10334664  0.56802749  0.52027834     0.25030
C1061       C  0.11427032  0.54719126  0.54332617    -0.22960
C1062       C  0.08703965  0.51588188  0.55454078     0.19930
F1063       F  0.09576391  0.49541661  0.57683845    -0.12920
F1064       F  0.02763999  0.97047014  0.55214295    -0.15280
F1065       F  0.12892012  0.59560060  0.50717279    -0.15280
F1066       F  0.05790012  0.57948752  0.48696032    -0.12920
C1067       C  0.39692150  0.49942910  0.55153979     0.25090
C1068       C  0.38600290  0.54500484  0.55057518    -0.23020
C1069       C  0.41099522  0.57601326  0.53708666     0.20000
C1070       C  0.44359971  0.56141549  0.52313606     0.25030
C1071       C  0.45162733  0.51557342  0.52198588    -0.22960
C1072       C  0.42932800  0.48479666  0.53718663     0.19930
F1073       F  0.43743082  0.94019441  0.53700694    -0.12920
F1074       F  0.37444516  0.96860830  0.56475772    -0.15280
F1075       F  0.46526849  0.59183324  0.50910415    -0.15280
F1076       F  0.40300469  0.62055040  0.53627982    -0.12920
C1077       C  0.08652769  0.98593680  0.44617052     0.25090
C1078       C  0.11338264  0.95405609  0.45702080    -0.23020
C1079       C  0.10217945  0.93242415  0.47987805     0.20000
C1080       C  0.06596755  0.94234019  0.49138711     0.25030
C1081       C  0.04137263  0.97708958  0.48196764    -0.22960
C1082       C  0.05090219  0.99769662  0.45869852     0.19930
F1083       F  0.02738974  0.53136817  0.44902991    -0.12920
F1084       F  0.09548683  0.50706147  0.42405923    -0.15280
F1085       F  0.05712636  0.92115556  0.51352499    -0.15280
F1086       F  0.12713788  0.90369467  0.49253807    -0.12920
C1087       C  0.40931746  0.92278428  0.46556169     0.25090
C1088       C  0.38509977  0.95397041  0.45178116    -0.23020
C1089       C  0.39701961  0.99931712  0.45051483     0.20000
C1090       C  0.42961732  0.01364060  0.46480650     0.25030
C1091       C  0.45128361  0.98276879  0.48017221    -0.22960
C1092       C  0.44232578  0.93705139  0.47932209     0.19930
F1093       F  0.46371472  0.90652695  0.49332681    -0.12920
F1094       F  0.40026355  0.87846518  0.46673429    -0.15280
F1095       F  0.43855625  0.05810872  0.46476302    -0.15280
F1096       F  0.37540114  0.03030570  0.43697918    -0.12920
C1097       C  0.97569603  0.99922817  0.50099832     0.02060
C1098       C  0.51668709  0.50042580  0.50051551     0.02060
C1099       C  0.97198432  0.25264824  0.49967777     0.02060
C1100       C  0.51285566  0.25394584  0.49866865     0.02060
C1101       C  0.84623824  0.43935831  0.44069397     0.43950
N1102       N  0.79259736  0.43529683  0.41813285     0.02840
C1103       C  0.66237750  0.25690327  0.41115534    -0.05030
H1104       H  0.83072706  0.22368220  0.39803301     0.08330
C1105       C  0.81321803  0.31420148  0.32102458    -0.05390
Co1106     Co  0.74694919  0.35134991  0.43155250     0.74180
N1107       N  0.78874395  0.27451684  0.40957491    -0.24560
Co1108     Co  0.74364945  0.28092522  0.38263595     0.74070
C1109       C  0.82792743  0.26845547  0.32635832     0.44050
N1110       N  0.78952665  0.42303883  0.34455995     0.02460
N1111       N  0.78739084  0.28713618  0.35520205     0.02560
N1112       N  0.66907663  0.30270597  0.44301813    -0.45410
H1113       H  0.82913531  0.37441364  0.46297314     0.08320
N1114       N  0.78935611  0.30174209  0.42809877     0.02850
N1115       N  0.70022530  0.28840544  0.35513171     0.02590
C1116       C  0.66036327  0.26945869  0.32593345     0.44190
N1117       N  0.78931188  0.45059041  0.36304212    -0.24020
C1118       C  0.67577212  0.40195643  0.45135238    -0.04940
N1119       N  0.82510069  0.46054302  0.42201235    -0.45130
N1120       N  0.67727801  0.25532138  0.34756170    -0.45350
C1121       C  0.65218158  0.44173080  0.44485584     0.43970
N1122       N  0.70147053  0.30418197  0.42883754     0.02840
N1123       N  0.70294039  0.45221940  0.36299283    -0.24040
N1124       N  0.79164439  0.39921512  0.43314519    -0.24530
N1125       N  0.70214476  0.42431041  0.34461283     0.02480
H1126       H  0.67916802  0.51904676  0.36637451     0.08370
H1127       H  0.67450714  0.33459704  0.30306561     0.08400
N1128       N  0.69863657  0.27792135  0.40992864    -0.24580
N1129       N  0.78793782  0.32251595  0.33962817    -0.24200
N1130       N  0.70202336  0.43656846  0.41920426     0.02840
C1131       C  0.84301085  0.26279664  0.43313579     0.44240
C1132       C  0.81424786  0.48502808  0.35746613    -0.05450
N1133       N  0.70095626  0.32336897  0.33926337    -0.24190
H1134       H  0.81663138  0.33506586  0.30424251     0.08390
N1135       N  0.82122537  0.29599000  0.44248739    -0.45420
H1136       H  0.81691381  0.51508065  0.36786395     0.08370
C1137       C  0.66547063  0.48015059  0.33150252     0.44070
C1138       C  0.82336493  0.39941154  0.44831717    -0.04940
Co1139     Co  0.74648768  0.44482662  0.39112617     0.73820
N1140       N  0.81291316  0.43783400  0.32604585    -0.45130
C1141       C  0.64278671  0.27417760  0.43316760     0.44340
N1142       N  0.67030205  0.46202195  0.42457475    -0.45120
Co1143     Co  0.74511594  0.37350510  0.34183888     0.73890
C1144       C  0.67653411  0.31456681  0.32021348    -0.05450
C1145       C  0.82182575  0.24818522  0.41115654    -0.05010
N1146       N  0.70479275  0.40108673  0.43448539    -0.24540
N1147       N  0.81033230  0.25402487  0.34778293    -0.45300
H1148       H  0.65017856  0.23530075  0.39743753     0.08350
C1149       C  0.68019175  0.48827312  0.35650961    -0.05430
Cl1150     Cl  0.74542673  0.36279132  0.38666161    -0.48430
C1151       C  0.83022290  0.47638824  0.33295372     0.44100
H1152       H  0.67175929  0.37611391  0.46574164     0.08310
N1153       N  0.68068007  0.44007915  0.32554141    -0.45140
C1154       C  0.84713195  0.06015420  0.56132515     0.43950
N1155       N  0.79299222  0.06551995  0.58335718     0.02840
C1156       C  0.66552475  0.24747233  0.58558040    -0.05030
H1157       H  0.83309911  0.27708742  0.60271919     0.08330
C1158       C  0.81061485  0.18973267  0.67977182    -0.05390
Co1159     Co  0.74915752  0.14965843  0.56861439     0.74180
N1160       N  0.79100467  0.22663448  0.59066148    -0.24560
Co1161     Co  0.74424787  0.22190604  0.61674567     0.74070
C1162       C  0.82606875  0.23519018  0.67430271     0.44050
N1163       N  0.78714880  0.08021202  0.65673132     0.02460
N1164       N  0.78654695  0.21618157  0.64503229     0.02560
N1165       N  0.67368595  0.20047047  0.55441862    -0.45410
H1166       H  0.83147819  0.12451290  0.53827620     0.08320
N1167       N  0.79252872  0.19847171  0.57258063     0.02850
N1168       N  0.69950658  0.21573286  0.64376078     0.02590
C1169       C  0.65986000  0.23606097  0.67284448     0.44190
N1170       N  0.78749201  0.05233003  0.63839531    -0.24020
C1171       C  0.67759365  0.09890298  0.54842621    -0.04940
N1172       N  0.82523049  0.03968984  0.57998355    -0.45130
N1173       N  0.67739540  0.24957224  0.65121139    -0.45350
C1174       C  0.65322246  0.05962332  0.55530142     0.43970
N1175       N  0.70443785  0.19788160  0.56985928     0.02840
N1176       N  0.70117642  0.05116888  0.63741444    -0.24040
N1177       N  0.79298838  0.10115091  0.56804053    -0.24530
N1178       N  0.69976514  0.07962185  0.65551646     0.02480
H1179       H  0.67808423  0.98388040  0.63450205     0.08370
H1180       H  0.67210464  0.17088980  0.69594061     0.08400
N1181       N  0.70078601  0.22486444  0.58839799    -0.24580
N1182       N  0.78612212  0.18113737  0.66084759    -0.24200
N1183       N  0.70248706  0.06539821  0.58121846     0.02840
C1184       C  0.84770329  0.23550234  0.56887980     0.44240
C1185       C  0.81234890  0.01814965  0.64428335    -0.05450
N1186       N  0.69920559  0.18097116  0.65981699    -0.24190
H1187       H  0.81311645  0.16923358  0.69673618     0.08390
N1188       N  0.82582933  0.20260813  0.55920959    -0.45420
H1189       H  0.81549793  0.98804737  0.63398170     0.08370
C1190       C  0.66312615  0.02361785  0.66884868     0.44070
C1191       C  0.82502700  0.10008840  0.55314114    -0.04940
Co1192     Co  0.74578634  0.05749469  0.60981363     0.73820
N1193       N  0.81005990  0.06579930  0.67551045    -0.45130
C1194       C  0.64749135  0.23054758  0.56291641     0.44340
N1195       N  0.67058111  0.04008431  0.57595506    -0.45120
Co1196     Co  0.74302132  0.13031377  0.65840494     0.73890
C1197       C  0.67461201  0.19052339  0.67867598    -0.05450
C1198       C  0.82474686  0.25215847  0.58970190    -0.05010
N1199       N  0.70617555  0.10027723  0.56554678    -0.24540
N1200       N  0.80947713  0.24932815  0.65256107    -0.45300
H1201       H  0.65306223  0.27049331  0.59848295     0.08350
C1202       C  0.67846947  0.01504014  0.64403166    -0.05430
Cl1203     Cl  0.74521771  0.13964369  0.61358618    -0.48430
C1204       C  0.82767942  0.02729456  0.66882541     0.44100
H1205       H  0.67448130  0.12394253  0.53354167     0.08310
N1206       N  0.67791494  0.06410039  0.67454614    -0.45140
C1207       C  0.76025593  0.00094740  0.00006809     0.02060
C1208       C  0.71906016  0.00116400  0.00034866     0.02060
C1209       C  0.75596104  0.24898846  0.00117239     0.02060
C1210       C  0.71487774  0.24911172  0.00136556     0.02060
C1211       C  0.88933677  0.01878531  0.93510064     0.43950
N1212       N  0.94274167  0.03349069  0.91385512     0.02840
C1213       C  0.56239534  0.22234580  0.91827820    -0.05030
H1214       H  0.89696985  0.25037009  0.90401713     0.08330
C1215       C  0.92098487  0.18272094  0.82175695    -0.05390
Co1216     Co  0.98356122  0.11513604  0.93164343     0.74180
N1217       N  0.93882575  0.19622936  0.91271514    -0.24560
Co1218     Co  0.98528379  0.20042699  0.88605943     0.74070
C1219       C  0.90549513  0.22681542  0.82787382     0.44050
N1220       N  0.94605104  0.06834939  0.84155018     0.02460
N1221       N  0.94317637  0.20070696  0.85753384     0.02560
N1222       N  0.55699282  0.16663374  0.94765923    -0.45410
H1223       H  0.89991417  0.07781654  0.96003763     0.08320
N1224       N  0.93836355  0.16322583  0.92979189     0.02850
N1225       N  0.53002433  0.20291780  0.85875359     0.02590
C1226       C  0.57081720  0.23029262  0.83092723     0.44190
N1227       N  0.94676304  0.03596963  0.85901773    -0.24020
C1228       C  0.55924153  0.06306416  0.94823214    -0.04940
N1229       N  0.91142172  0.00540470  0.91567256    -0.45130
N1230       N  0.55205204  0.23881210  0.85242166    -0.45350
C1231       C  0.58468941  0.02848508  0.93844008     0.43970
N1232       N  0.52672932  0.16558358  0.93184614     0.02840
N1233       N  0.53334100  0.03771573  0.85965397    -0.24040
N1234       N  0.94137702  0.06449630  0.93049867    -0.24530
N1235       N  0.53349490  0.07009128  0.84214478     0.02480
H1236       H  0.55885516  0.97121720  0.86161580     0.08370
H1237       H  0.56078037  0.17031853  0.80639029     0.08400
N1238       N  0.52883509  0.19773688  0.91435647    -0.24580
N1239       N  0.94461601  0.16975433  0.84080393    -0.24200
N1240       N  0.53251228  0.03728666  0.91530084     0.02840
C1241       C  0.88374208  0.19954107  0.93663331     0.44240
C1242       C  0.92223767  0.00281663  0.85253756    -0.05450
N1243       N  0.53150341  0.17201126  0.84195444    -0.24190
H1244       H  0.91988527  0.16669866  0.80419844     0.08390
N1245       N  0.90625715  0.16404337  0.94438375    -0.45420
H1246       H  0.91987343  0.97017221  0.86204702     0.08370
C1247       C  0.57186308  0.01864681  0.82785914     0.44070
C1248       C  0.90903853  0.05759589  0.94489906    -0.04940
Co1249     Co  0.98906311  0.03521413  0.88721155     0.73660
N1250       N  0.92289881  0.05806543  0.82263811    -0.45130
C1251       C  0.58126058  0.20114231  0.94057865     0.44340
N1252       N  0.56639307  0.01350562  0.91794979    -0.45120
Co1253     Co  0.98894254  0.11999578  0.84142106     0.73890
C1254       C  0.55695405  0.18608488  0.82387945    -0.05450
C1255       C  0.90549009  0.22143303  0.91563816    -0.05010
N1256       N  0.52856338  0.06716598  0.93242543    -0.24540
N1257       N  0.92079295  0.23565479  0.85028904    -0.45300
H1258       H  0.57265001  0.25044027  0.90654394     0.08350
C1259       C  0.55727901  0.00427891  0.85252978    -0.05430
Cl1260     Cl  0.98688405  0.11775813  0.88642633    -0.48430
C1261       C  0.90612145  0.01755145  0.82846771     0.44100
H1262       H  0.56425254  0.08341553  0.96395854     0.08310
N1263       N  0.55542599  0.05953297  0.82271476    -0.45140
C1264       C  0.61778926  0.40016792  0.74992132     0.02060
C1265       C  0.61726856  0.35414781  0.75093226     0.02060
C1266       C  0.86740287  0.35710231  0.74998033     0.02060
C1267       C  0.86757950  0.40278516  0.74911680     0.02060
C1268       C  0.61580324  0.14857655  0.25002809     0.02060
C1269       C  0.61652199  0.10272194  0.25112125     0.02060
C1270       C  0.86609324  0.14562272  0.25066453     0.02060
C1271       C  0.86646120  0.09995816  0.25149137     0.02060
C1272       C  0.89050422  0.48298014  0.06452745     0.43950
N1273       N  0.94310456  0.46843239  0.08640723     0.02840
C1274       C  0.56233482  0.27932815  0.08411862    -0.05030
H1275       H  0.89716711  0.25110324  0.09746872     0.08330
C1276       C  0.91755307  0.32125913  0.17876985    -0.05390
Co1277     Co  0.98413374  0.38633849  0.06946980     0.74180
N1278       N  0.93893251  0.30542024  0.08855296    -0.24560
Co1279     Co  0.98449398  0.30201950  0.11553869     0.74070
C1280       C  0.90233221  0.27688983  0.17281629     0.44050
N1281       N  0.94406003  0.43487995  0.15890634     0.02460
N1282       N  0.94146045  0.30225296  0.14357931     0.02560
N1283       N  0.55792161  0.33445159  0.05435957    -0.45410
H1284       H  0.90134944  0.42320616  0.04015226     0.08320
N1285       N  0.93873341  0.33807221  0.07127103     0.02850
N1286       N  0.52841159  0.30025855  0.14313179     0.02590
C1287       C  0.56863458  0.27337010  0.17123956     0.44190
N1288       N  0.94544294  0.46706205  0.14133835    -0.24020
C1289       C  0.56034714  0.43820727  0.05326053    -0.04940
N1290       N  0.91205729  0.49663283  0.08408983    -0.45130
N1291       N  0.55056403  0.26468956  0.14959542    -0.45350
C1292       C  0.58560011  0.47306647  0.06301382     0.43970
N1293       N  0.52727947  0.33591740  0.06993862     0.02840
N1294       N  0.53201406  0.46512192  0.14149341    -0.24040
N1295       N  0.94204627  0.43704258  0.06996349    -0.24530
N1296       N  0.53145122  0.43304152  0.15917003     0.02480
H1297       H  0.55809915  0.53148348  0.13942067     0.08370
H1298       H  0.55738470  0.33313292  0.19576644     0.08400
N1299       N  0.52882334  0.30412281  0.08763800    -0.24580
N1300       N  0.94222524  0.33362465  0.16006681    -0.24200
N1301       N  0.53283749  0.46461586  0.08580993     0.02840
C1302       C  0.88441315  0.30103349  0.06447783     0.44240
C1303       C  0.92106933  0.50046748  0.14757146    -0.05450
N1304       N  0.52917755  0.33117966  0.15992504    -0.24190
H1305       H  0.91562211  0.33782678  0.19613959     0.08390
N1306       N  0.90685469  0.33665981  0.05655039    -0.45420
H1307       H  0.91925507  0.53306324  0.13797505     0.08370
C1308       C  0.56974932  0.48450968  0.17350965     0.44070
C1309       C  0.91017379  0.44376190  0.05522033    -0.04940
Co1310     Co  0.98857179  0.46723269  0.11350306     0.73820
N1311       N  0.92055466  0.44549817  0.17761118    -0.45130
C1312       C  0.58184987  0.30000920  0.06183502     0.44340
N1313       N  0.56680440  0.48847376  0.08324943    -0.45120
Co1314     Co  0.98675035  0.38321467  0.15970594     0.73890
C1315       C  0.55407409  0.31729126  0.17826412    -0.05450
C1316       C  0.90580596  0.27982993  0.08567514    -0.05010
N1317       N  0.52926436  0.43437569  0.06883896    -0.24540
N1318       N  0.91859991  0.26751874  0.15071784    -0.45300
H1319       H  0.57212536  0.25140293  0.09608135     0.08350
C1320       C  0.55597849  0.49857865  0.14865876    -0.05430
Cl1321     Cl  0.98609628  0.38470318  0.11465879    -0.48430
C1322       C  0.90427390  0.48608398  0.17158822     0.44100
H1323       H  0.56567043  0.41757123  0.03768395     0.08310
N1324       N  0.55285894  0.44382402  0.17874630    -0.45140
C1325       C  0.92332412  0.04662918  0.19949347     0.25090
C1326       C  0.89366758  0.51746436  0.19066659    -0.23020
C1327       C  0.85479591  0.51715607  0.20094759     0.20000
C1328       C  0.84567231  0.04544674  0.22011917     0.25030
C1329       C  0.87545166  0.07415408  0.22928920    -0.22960
C1330       C  0.91431344  0.07473890  0.21875398     0.19930
F1331       F  0.94396650  0.10086238  0.22790352    -0.12920
F1332       F  0.96145924  0.04652065  0.19009661    -0.15280
F1333       F  0.80783790  0.04456664  0.22994910    -0.15280
F1334       F  0.82590010  0.48917495  0.19257832    -0.12920
C1335       C  0.86333228  0.20916909  0.18825299     0.25090
C1336       C  0.89412227  0.24085052  0.19166894    -0.23020
C1337       C  0.91869551  0.23673812  0.21287880     0.20000
C1338       C  0.91124930  0.20308906  0.23094561     0.25030
C1339       C  0.87882676  0.17319146  0.22843849    -0.22960
C1340       C  0.85533364  0.17573506  0.20671946     0.19930
F1341       F  0.82328144  0.14781098  0.20411524    -0.12920
F1342       F  0.83998261  0.21188672  0.16759013    -0.15280
F1343       F  0.93499558  0.20058412  0.25146036    -0.15280
F1344       F  0.95015118  0.26521527  0.21621321    -0.12920
C1345       C  0.62368503  0.07665890  0.20721552     0.25090
C1346       C  0.60288434  0.07559901  0.23001821    -0.23020
C1347       C  0.57103402  0.04475078  0.23388081     0.20000
C1348       C  0.56057025  0.51502085  0.21562753     0.25030
C1349       C  0.58157831  0.51564590  0.19292417    -0.22960
C1350       C  0.61271587  0.04730725  0.18869703     0.19930
F1351       F  0.63344081  0.04870321  0.16696067    -0.12920
F1352       F  0.65573605  0.10460537  0.20329167    -0.15280
F1353       F  0.52923824  0.48620614  0.22004342    -0.15280
F1354       F  0.55000907  0.04332108  0.25551838    -0.12920
C1355       C  0.62192696  0.23345198  0.19599741     0.25090
C1356       C  0.58124820  0.23757538  0.18916947    -0.23020
C1357       C  0.55217472  0.20916108  0.20074932     0.20000
C1358       C  0.56353685  0.17816566  0.21971825     0.25030
C1359       C  0.60414559  0.17519971  0.22722598    -0.22960
C1360       C  0.63333922  0.20244745  0.21486891     0.19930
F1361       F  0.67288623  0.19961555  0.22145770    -0.12920
F1362       F  0.65043098  0.26016564  0.18474456    -0.15280
F1363       F  0.53469589  0.15289142  0.23165179    -0.15280
F1364       F  0.51256418  0.21288436  0.19441013    -0.12920
C1365       C  0.57435682  0.46021731  0.76691941     0.25090
C1366       C  0.60453302  0.42753665  0.77111235    -0.23020
C1367       C  0.62404735  0.42493813  0.79432041     0.20000
C1368       C  0.61326278  0.45430866  0.81290106     0.25030
C1369       C  0.58381417  0.98768785  0.80833501    -0.22960
C1370       C  0.56431742  0.99007175  0.78517153     0.19930
F1371       F  0.53470160  0.02069354  0.78027361    -0.12920
F1372       F  0.55445215  0.46331538  0.74493780    -0.15280
F1373       F  0.63252793  0.45112522  0.83508507    -0.15280
F1374       F  0.65464013  0.39535001  0.79866497    -0.12920
C1375       C  0.63435917  0.29541904  0.78375810     0.25090
C1376       C  0.60642788  0.32706935  0.77390463    -0.23020
C1377       C  0.56740982  0.32863122  0.78425912     0.20000
C1378       C  0.55643136  0.29848076  0.80379370     0.25030
C1379       C  0.58405137  0.26590561  0.81292084    -0.22960
C1380       C  0.62311676  0.26486579  0.80293986     0.19930
F1381       F  0.65011961  0.23359153  0.81145569    -0.12920
F1382       F  0.67238944  0.29343788  0.77434792    -0.15280
F1383       F  0.51806644  0.29927324  0.81278366    -0.15280
F1384       F  0.53923808  0.35734438  0.77447947    -0.12920
C1385       C  0.92501799  0.95708891  0.80052768     0.25090
C1386       C  0.89548738  0.98631904  0.80934006    -0.23020
C1387       C  0.85651447  0.48630210  0.79929936     0.20000
C1388       C  0.84713244  0.45755245  0.78039498     0.25030
C1389       C  0.87676798  0.42872740  0.77123720    -0.22960
C1390       C  0.91577148  0.42855722  0.78150308     0.19930
F1391       F  0.94534566  0.40249960  0.77227934    -0.12920
F1392       F  0.96322674  0.95746108  0.80974218    -0.15280
F1393       F  0.80921013  0.45817761  0.77076428    -0.15280
F1394       F  0.82775900  0.01438423  0.80765613    -0.12920
C1395       C  0.91395965  0.30148269  0.76996099     0.25090
C1396       C  0.88041594  0.32978462  0.77219370    -0.23020
C1397       C  0.85658623  0.32634094  0.79380084     0.20000
C1398       C  0.86518636  0.29329763  0.81234462     0.25030
C1399       C  0.89718781  0.26312796  0.80921408    -0.22960
C1400       C  0.92232785  0.26851518  0.78826043     0.19930
F1401       F  0.95516060  0.24189457  0.78542518    -0.12920
F1402       F  0.93806781  0.30502783  0.74958291    -0.15280
F1403       F  0.84127987  0.28941767  0.83278465    -0.15280
F1404       F  0.82373972  0.35304902  0.79623205    -0.12920
C1405       C  0.64701748  0.25527964  0.05750173     0.25090
C1406       C  0.62078022  0.29006715  0.04915661    -0.23020
C1407       C  0.63173570  0.31597705  0.02763594     0.20000
C1408       C  0.66647552  0.30626814  0.01437216     0.25030
C1409       C  0.69037330  0.26906254  0.02125779    -0.22960
C1410       C  0.68145769  0.24469342  0.04352878     0.19930
F1411       F  0.70427551  0.20863393  0.05073528    -0.12920
F1412       F  0.63850746  0.23002794  0.07837004    -0.15280
F1413       F  0.67482436  0.33108868  0.99329410    -0.15280
F1414       F  0.60776778  0.34957215  0.01831668    -0.12920
C1415       C  0.82161512  0.32033173  0.04046245     0.25090
C1416       C  0.84624023  0.28753879  0.05246770    -0.23020
C1417       C  0.83578246  0.24203009  0.05092051     0.20000
C1418       C  0.80342063  0.22957399  0.03596530     0.25030
C1419       C  0.78056673  0.26237718  0.02266919    -0.22960
C1420       C  0.78864254  0.30786952  0.02605010     0.19930
F1421       F  0.76658766  0.34018603  0.01383015    -0.12920
F1422       F  0.83062910  0.36454090  0.04169040    -0.15280
F1423       F  0.79600773  0.18525943  0.03323612    -0.15280
F1424       F  0.85893909  0.20940612  0.06201153    -0.12920
C1425       C  0.68168918  0.25434059  0.95923802     0.25090
C1426       C  0.68983241  0.22981122  0.98154042    -0.23020
C1427       C  0.66494220  0.19329503  0.98844763     0.20000
C1428       C  0.63015507  0.18434923  0.97508077     0.25030
C1429       C  0.62008355  0.21040915  0.95348194    -0.22960
C1430       C  0.64717161  0.24455136  0.94519193     0.19930
F1431       F  0.63950250  0.26989187  0.92426036    -0.12920
F1432       F  0.70537402  0.28984158  0.95205671    -0.15280
F1433       F  0.60536483  0.15127271  0.98431254    -0.15280
F1434       F  0.67247656  0.16837108  0.00957841    -0.12920
C1435       C  0.83401436  0.25741929  0.95023776     0.25090
C1436       C  0.84538750  0.21220129  0.94881725    -0.23020
C1437       C  0.82166298  0.17889064  0.96129496     0.20000
C1438       C  0.78881438  0.19063672  0.97603354     0.25030
C1439       C  0.78002631  0.23593858  0.97934241    -0.22960
C1440       C  0.80186258  0.26917442  0.96558482     0.19930
F1441       F  0.79371974  0.31331293  0.96826619    -0.12920
F1442       F  0.85612851  0.29054335  0.93863807    -0.15280
F1443       F  0.76763210  0.15789564  0.98864026    -0.15280
F1444       F  0.83153103  0.13490895  0.96027459    -0.12920
C1445       C  0.67668470  0.53159509  0.03468023     0.25090
C1446       C  0.69486544  0.49479345  0.02347317    -0.23020
C1447       C  0.68175431  0.45121578  0.03042298     0.20000
C1448       C  0.65005516  0.44465428  0.04707621     0.25030
C1449       C  0.62768543  0.48136734  0.05496398    -0.22960
C1450       C  0.64255674  0.52496164  0.04999264     0.19930
F1451       F  0.62207678  0.06101130  0.05797709    -0.12920
F1452       F  0.68978780  0.07402644  0.02924309    -0.15280
F1453       F  0.63898768  0.40203051  0.05392486    -0.15280
F1454       F  0.69716203  0.41487802  0.01945820    -0.12920
C1455       C  0.81319807  0.53950024  0.02447273     0.25090
C1456       C  0.78507815  0.50398788  0.02307824    -0.23020
C1457       C  0.78755893  0.46784704  0.04069209     0.20000
C1458       C  0.81892702  0.46582725  0.05794621     0.25030
C1459       C  0.85005443  0.49779963  0.05668924    -0.22960
C1460       C  0.84593738  0.53601786  0.04088186     0.19930
F1461       F  0.87594466  0.06718675  0.03924700    -0.12920
F1462       F  0.81142610  0.07531346  0.00809155    -0.15280
F1463       F  0.82189824  0.42937865  0.07384943    -0.15280
F1464       F  0.76357005  0.43135416  0.03923593    -0.12920
C1465       C  0.64176636  0.97705493  0.95127954     0.25090
C1466       C  0.62674347  0.02054978  0.94648243    -0.23020
C1467       C  0.64904558  0.05740911  0.95435396     0.20000
C1468       C  0.68108893  0.05099549  0.97069844     0.25030
C1469       C  0.69431375  0.00747671  0.97750512    -0.22960
C1470       C  0.67603862  0.97059234  0.96639151     0.19930
F1471       F  0.68925673  0.42822984  0.97169977    -0.12920
F1472       F  0.62132062  0.44090174  0.94330655    -0.15280
F1473       F  0.69687560  0.08740061  0.98145185    -0.15280
F1474       F  0.63772855  0.09998261  0.94771593    -0.12920
C1475       C  0.81168144  0.96190857  0.97481542     0.25090
C1476       C  0.78419392  0.99776937  0.97669268    -0.23020
C1477       C  0.78671518  0.03410040  0.95919495     0.20000
C1478       C  0.81787025  0.03615483  0.94173164     0.25030
C1479       C  0.84865386  0.00388225  0.94261744    -0.22960
C1480       C  0.84415559  0.96530770  0.95813803     0.19930
F1481       F  0.87372570  0.93374880  0.95933379    -0.12920
F1482       F  0.80967390  0.42584030  0.99102900    -0.15280
F1483       F  0.82118125  0.07299741  0.92611776    -0.15280
F1484       F  0.76308253  0.07071180  0.96100396    -0.12920
C1485       C  0.62192940  0.45748840  0.68523437     0.25090
C1486       C  0.65318516  0.98878854  0.68836768    -0.23020
C1487       C  0.67497285  0.48733032  0.71077307     0.20000
C1488       C  0.66456856  0.45669945  0.73001561     0.25030
C1489       C  0.63201396  0.42691281  0.72749073    -0.22960
C1490       C  0.61105942  0.42703914  0.70477575     0.19930
F1491       F  0.57875847  0.39954200  0.70200417    -0.12920
F1492       F  0.60067367  0.95793193  0.66374616    -0.15280
F1493       F  0.68595294  0.45666686  0.75147159    -0.15280
F1494       F  0.70655239  0.01564172  0.71413971    -0.12920
C1495       C  0.60919929  0.26768517  0.70158350     0.25090
C1496       C  0.64833598  0.26818077  0.69162140    -0.23020
C1497       C  0.67705413  0.29870654  0.70026865     0.20000
C1498       C  0.66690840  0.32779907  0.71899050     0.25030
C1499       C  0.62764209  0.32729990  0.72907063    -0.22960
C1500       C  0.59884668  0.29714249  0.72005201     0.19930
F1501       F  0.56067642  0.29594379  0.72937601    -0.12920
F1502       F  0.58106324  0.23853835  0.69346977    -0.15280
F1503       F  0.69594195  0.35474825  0.72812729    -0.15280
F1504       F  0.71544252  0.29901480  0.69127175    -0.12920
C1505       C  0.87808930  0.99165779  0.69744195     0.25090
C1506       C  0.83917237  0.99218406  0.68732221    -0.23020
C1507       C  0.81017901  0.46076925  0.69615926     0.20000
C1508       C  0.81968978  0.43004898  0.71558259     0.25030
C1509       C  0.85850243  0.43009076  0.72614245    -0.22960
C1510       C  0.88780872  0.46062332  0.71662967     0.19930
F1511       F  0.92562759  0.46106132  0.72638911    -0.12920
F1512       F  0.90634412  0.02183419  0.68909612    -0.15280
F1513       F  0.79038515  0.40225554  0.72504525    -0.15280
F1514       F  0.77207373  0.46139120  0.68678286    -0.12920
C1515       C  0.81303863  0.26929489  0.71469407     0.25090
C1516       C  0.83665556  0.26733892  0.69313065    -0.23020
C1517       C  0.86822830  0.29841033  0.68898303     0.20000
C1518       C  0.87750000  0.32948933  0.70688413     0.25030
C1519       C  0.85452261  0.33040574  0.72879546    -0.22960
C1520       C  0.82181718  0.30061866  0.73227061     0.19930
F1521       F  0.79852850  0.30155256  0.75296806    -0.12920
F1522       F  0.78085498  0.24146034  0.71860424    -0.15280
F1523       F  0.90988580  0.35712840  0.70337466    -0.15280
F1524       F  0.89077749  0.29764923  0.66798023    -0.12920
C1525       C  0.62269073  0.04506816  0.31559512     0.25090
C1526       C  0.65475746  0.51503493  0.31222768    -0.23020
C1527       C  0.67633883  0.51749356  0.28970794     0.20000
C1528       C  0.66498292  0.04785523  0.27058223     0.25030
C1529       C  0.63163804  0.07629925  0.27334741    -0.22960
C1530       C  0.61085618  0.07519246  0.29617008     0.19930
F1531       F  0.57781201  0.10134686  0.29916191    -0.12920
F1532       F  0.60154324  0.04357430  0.33717432    -0.15280
F1533       F  0.68619350  0.04886340  0.24901226    -0.15280
F1534       F  0.70856165  0.49033284  0.28609469    -0.12920
C1535       C  0.67838354  0.21085405  0.29634134     0.25090
C1536       C  0.64868360  0.23736228  0.30726660    -0.23020
C1537       C  0.60804972  0.23206831  0.30071339     0.20000
C1538       C  0.59728491  0.20154419  0.28287807     0.25030
C1539       C  0.62703554  0.17568089  0.27147472    -0.22960
C1540       C  0.66766126  0.18022852  0.27853902     0.19930
F1541       F  0.69704115  0.15636079  0.26750151    -0.12920
F1542       F  0.71788552  0.21532808  0.30262088    -0.15280
F1543       F  0.55775370  0.19732862  0.27661133    -0.15280
F1544       F  0.57887528  0.25652302  0.31154956    -0.12920
C1545       C  0.81103688  0.54177029  0.30536096     0.25090
C1546       C  0.84094085  0.51184341  0.31442941    -0.23020
C1547       C  0.87970340  0.01329249  0.30401226     0.20000
C1548       C  0.88835234  0.04368502  0.28428556     0.25030
C1549       C  0.85816089  0.07270247  0.27459988    -0.22960
C1550       C  0.81953550  0.07194104  0.28546941     0.19930
F1551       F  0.78952652  0.09848723  0.27593368    -0.12920
F1552       F  0.77303227  0.54007513  0.31494876    -0.15280
F1553       F  0.92604707  0.04422766  0.27426155    -0.15280
F1554       F  0.90880829  0.98451298  0.31254761    -0.12920
C1555       C  0.87651566  0.17246933  0.29392289     0.25090
C1556       C  0.85363701  0.17227232  0.27197644    -0.23020
C1557       C  0.82215332  0.20345149  0.26835041     0.20000
C1558       C  0.81470093  0.23552623  0.28570195     0.25030
C1559       C  0.83799724  0.23642929  0.30740081    -0.22960
C1560       C  0.86818510  0.20394815  0.31175304     0.19930
F1561       F  0.89037706  0.20372128  0.33288816    -0.12920
F1562       F  0.90810125  0.14390729  0.29749338    -0.15280
F1563       F  0.78410890  0.26518374  0.28139972    -0.15280
F1564       F  0.79901956  0.20341087  0.24759528    -0.12920
C1565       C  0.58992357  0.19891051  0.54009581     0.25090
C1566       C  0.60635359  0.23551067  0.55226564    -0.23020
C1567       C  0.58547154  0.27661496  0.55103290     0.20000
C1568       C  0.55158657  0.28209892  0.53537199     0.25030
C1569       C  0.53874213  0.24653174  0.52090129    -0.22960
C1570       C  0.55707376  0.20449719  0.52434527     0.19930
F1571       F  0.54461658  0.16915134  0.51127911    -0.12920
F1572       F  0.60671703  0.15763859  0.54263657    -0.15280
F1573       F  0.53294442  0.32259173  0.53323238    -0.15280
F1574       F  0.59939859  0.31205300  0.56346841    -0.12920
C1575       C  0.89260124  0.28740984  0.54481999     0.25090
C1576       C  0.88792812  0.24770232  0.55933945    -0.23020
C1577       C  0.91719708  0.21377917  0.55813115     0.20000
C1578       C  0.94754682  0.21671344  0.54006305     0.25030
C1579       C  0.94935531  0.25427170  0.52343909    -0.22960
C1580       C  0.92325852  0.29072748  0.52698100     0.19930
F1581       F  0.92503979  0.32785459  0.51156980    -0.12920
F1582       F  0.86462333  0.32057406  0.54579733    -0.15280
F1583       F  0.97194186  0.18082994  0.53707666    -0.15280
F1584       F  0.91383154  0.17585119  0.57288885    -0.12920
C1585       C  0.58405671  0.30849456  0.45316400     0.25090
C1586       C  0.60068274  0.27084226  0.44213925    -0.23020
C1587       C  0.58005534  0.22964632  0.44441505     0.20000
C1588       C  0.54689708  0.22493067  0.46066456     0.25030
C1589       C  0.53533502  0.26108521  0.47505439    -0.22960
C1590       C  0.55254361  0.30342880  0.47004581     0.19930
F1591       F  0.54086748  0.33929782  0.48293181    -0.12920
F1592       F  0.60034739  0.34987276  0.44897101    -0.15280
F1593       F  0.52824873  0.18447428  0.46373146    -0.15280
F1594       F  0.59407905  0.19332079  0.43281924    -0.12920
C1595       C  0.94319644  0.28648927  0.45993960     0.25090
C1596       C  0.94680986  0.24973191  0.47698391    -0.23020
C1597       C  0.92129353  0.21225428  0.47461605     0.20000
C1598       C  0.88972637  0.21368166  0.45740365     0.25030
C1599       C  0.88370098  0.25237708  0.44225381    -0.22960
C1600       C  0.91206091  0.28747514  0.44246966     0.19930
F1601       F  0.90688331  0.32484031  0.42748003    -0.12920
F1602       F  0.96676985  0.32342200  0.46187756    -0.15280
F1603       F  0.86243496  0.17956106  0.45750240    -0.15280
F1604       F  0.92490064  0.17573635  0.49036203    -0.12920
C1605       C  0.55130835  0.00389532  0.54217974     0.25090
C1606       C  0.54181168  0.02403759  0.51881071    -0.23020
C1607       C  0.56678165  0.05841235  0.50908330     0.20000
C1608       C  0.60334643  0.06802849  0.52027826     0.25030
C1609       C  0.61427021  0.04719212  0.54332606    -0.22960
C1610       C  0.58703969  0.01588252  0.55454059     0.19930
F1611       F  0.59576395  0.99541726  0.57683826    -0.12920
F1612       F  0.52763975  0.47046977  0.55214319    -0.15280
F1613       F  0.62891952  0.09560246  0.50717297    -0.15280
F1614       F  0.55790036  0.07948754  0.48695991    -0.12920
C1615       C  0.89692204  0.99942929  0.55153978     0.25090
C1616       C  0.88600329  0.04500500  0.55057480    -0.23020
C1617       C  0.91099550  0.07601315  0.53708601     0.20000
C1618       C  0.94359996  0.06141508  0.52313547     0.25030
C1619       C  0.95162770  0.01557296  0.52198567    -0.22960
C1620       C  0.92932853  0.98479654  0.53718671     0.19930
F1621       F  0.93743009  0.44019452  0.53700641    -0.12920
F1622       F  0.87444440  0.46860785  0.56475740    -0.15280
F1623       F  0.96526862  0.09183253  0.50910330    -0.15280
F1624       F  0.90300495  0.12055030  0.53627887    -0.12920
C1625       C  0.58652723  0.48593713  0.44617077     0.25090
C1626       C  0.61338185  0.45405585  0.45702086    -0.23020
C1627       C  0.60217831  0.43242341  0.47987792     0.20000
C1628       C  0.56596659  0.44233987  0.49138708     0.25030
C1629       C  0.54137206  0.47708975  0.48196782    -0.22960
C1630       C  0.55090180  0.49769707  0.45869880     0.19930
F1631       F  0.52738982  0.03136729  0.44902946    -0.12920
F1632       F  0.59548699  0.00706063  0.42405879    -0.15280
F1633       F  0.55712520  0.42115502  0.51352488    -0.15280
F1634       F  0.62713620  0.40369297  0.49253767    -0.12920
C1635       C  0.90931750  0.42278638  0.46556085     0.25090
C1636       C  0.88509956  0.45397285  0.45178070    -0.23020
C1637       C  0.89701912  0.49931964  0.45051488     0.20000
C1638       C  0.92961676  0.51364278  0.46480673     0.25030
C1639       C  0.95128321  0.48277053  0.48017210    -0.22960
C1640       C  0.94232569  0.43705317  0.47932142     0.19930
F1641       F  0.96371471  0.40652836  0.49332585    -0.12920
F1642       F  0.90026388  0.37846719  0.46673299    -0.15280
F1643       F  0.93855546  0.55811091  0.46476376    -0.15280
F1644       F  0.87540038  0.53030853  0.43697963    -0.12920
C1645       C  0.97569562  0.49922916  0.50099839     0.02060
C1646       C  0.51668748  0.00042567  0.50051522     0.02060
C1647       C  0.97198305  0.75264818  0.49967755     0.02060
C1648       C  0.51285434  0.75394669  0.49866814     0.02060
C1649       C  0.84623857  0.93935572  0.44069429     0.43950
N1650       N  0.79259778  0.93529478  0.41813307     0.02840
C1651       C  0.66237540  0.75690363  0.41115456    -0.05030
H1652       H  0.83072556  0.72368027  0.39803266     0.08330
C1653       C  0.81321904  0.81420160  0.32102512    -0.05390
Co1654     Co  0.74694851  0.85134838  0.43155229     0.74180
N1655       N  0.78874242  0.77451485  0.40957462    -0.24560
Co1656     Co  0.74364806  0.78092402  0.38263546     0.74070
C1657       C  0.82792731  0.76845495  0.32635816     0.44050
N1658       N  0.78952749  0.92303764  0.34456015     0.02460
N1659       N  0.78738988  0.78713471  0.35520169     0.02560
N1660       N  0.66907512  0.80270591  0.44301747    -0.45410
H1661       H  0.82913519  0.87441087  0.46297323     0.08320
N1662       N  0.78935463  0.80173990  0.42809858     0.02850
N1663       N  0.70022410  0.78840510  0.35513096     0.02590
C1664       C  0.66036226  0.76945933  0.32593219     0.44190
N1665       N  0.78931311  0.95058890  0.36304246    -0.24020
C1666       C  0.67577217  0.90195593  0.45135219    -0.04940
N1667       N  0.82510120  0.96054069  0.42201271    -0.45130
N1668       N  0.67727616  0.75532168  0.34756069    -0.45350
C1669       C  0.65218223  0.94173074  0.44485575     0.43970
N1670       N  0.70146917  0.80418128  0.42883702     0.02840
N1671       N  0.70294167  0.95221915  0.36299278    -0.24040
N1672       N  0.79164447  0.89921291  0.43314528    -0.24530
N1673       N  0.70214556  0.92430989  0.34461291     0.02480
H1674       H  0.67917111  0.01904742  0.36637400     0.08370
H1675       H  0.67450879  0.83459714  0.30306447     0.08400
N1676       N  0.69863490  0.77792086  0.40992803    -0.24580
N1677       N  0.78793789  0.82251517  0.33962832    -0.24200
N1678       N  0.70202390  0.93656779  0.41920418     0.02840
C1679       C  0.84300917  0.76279414  0.43313570     0.44240
C1680       C  0.81424981  0.98502604  0.35746673    -0.05450
N1681       N  0.70095628  0.82336861  0.33926264    -0.24190
H1682       H  0.81663357  0.83506713  0.30424356     0.08390
N1683       N  0.82122372  0.79598748  0.44248728    -0.45420
H1684       H  0.81691622  0.01507838  0.36786470     0.08370
C1685       C  0.66547319  0.98015111  0.33150210     0.44070
C1686       C  0.82336501  0.89940895  0.44831731    -0.04940
Co1687     Co  0.74648854  0.94482548  0.39112627     0.73820
N1688       N  0.81291429  0.93783271  0.32604617    -0.45130
C1689       C  0.64278471  0.77417829  0.43316678     0.44340
N1690       N  0.67030293  0.96202177  0.42457472    -0.45120
Co1691     Co  0.74511635  0.87350438  0.34183885     0.73890
C1692       C  0.67653482  0.81456682  0.32021235    -0.05450
C1693       C  0.82182416  0.74818309  0.41115628    -0.05010
N1694       N  0.70479278  0.90108587  0.43448522    -0.24540
N1695       N  0.81033126  0.75402349  0.34778237    -0.45300
H1696       H  0.65017615  0.73530153  0.39743663     0.08350
C1697       C  0.68019407  0.98827355  0.35650927    -0.05430
Cl1698     Cl  0.74542650  0.86279015  0.38666146    -0.48430
C1699       C  0.83022488  0.97638633  0.33295431     0.44100
H1700       H  0.67175891  0.87611334  0.46574137     0.08310
N1701       N  0.68068129  0.94007885  0.32554141    -0.45140
C1702       C  0.84713152  0.56015390  0.56132552     0.43950
N1703       N  0.79299187  0.56551979  0.58335758     0.02840
C1704       C  0.66552412  0.74747223  0.58557987    -0.05030
H1705       H  0.83309864  0.77708717  0.60271945     0.08330
C1706       C  0.81061385  0.68973309  0.67977202    -0.05390
Co1707     Co  0.74915722  0.64965815  0.56861458     0.74180
N1708       N  0.79100416  0.72663434  0.59066163    -0.24560
Co1709     Co  0.74424707  0.72190610  0.61674568     0.74070
C1710       C  0.82606772  0.73519060  0.67430288     0.44050
N1711       N  0.78714805  0.58021224  0.65673170     0.02460
N1712       N  0.78654600  0.71618186  0.64503244     0.02560
N1713       N  0.67368603  0.70047032  0.55441822    -0.45410
H1714       H  0.83147774  0.62451242  0.53827645     0.08320
N1715       N  0.79252841  0.69847139  0.57258088     0.02850
N1716       N  0.69950565  0.71573300  0.64376073     0.02590
C1717       C  0.65985929  0.73606140  0.67284450     0.44190
N1718       N  0.78749141  0.55233025  0.63839568    -0.24020
C1719       C  0.67759378  0.59890214  0.54842622    -0.04940
N1720       N  0.82523012  0.53968962  0.57998397    -0.45130
N1721       N  0.67739458  0.74957249  0.65121134    -0.45350
C1722       C  0.65322259  0.55962249  0.55530149     0.43970
N1723       N  0.70443754  0.69788138  0.56985917     0.02840
N1724       N  0.70117582  0.55116898  0.63741467    -0.24040
N1725       N  0.79298803  0.60115066  0.56804088    -0.24530
N1726       N  0.69976441  0.57962196  0.65551668     0.02480
H1727       H  0.67808375  0.48388047  0.63450223     0.08370
H1728       H  0.67210401  0.67089039  0.69594073     0.08400
N1729       N  0.70078535  0.72486431  0.58839781    -0.24580
N1730       N  0.78612118  0.68113769  0.66084779    -0.24200
N1731       N  0.70248677  0.56539797  0.58121874     0.02840
C1732       C  0.84770326  0.73550159  0.56888032     0.44240
C1733       C  0.81234836  0.51814995  0.64428373    -0.05450
N1734       N  0.69920470  0.68097140  0.65981703    -0.24190
H1735       H  0.81311547  0.66923404  0.69673639     0.08390
N1736       N  0.82582927  0.70260747  0.55921005    -0.45420
H1737       H  0.81549750  0.48804770  0.63398206     0.08370
C1738       C  0.66312545  0.52361789  0.66884883     0.44070
C1739       C  0.82502659  0.60008805  0.55314146    -0.04940
Co1740     Co  0.74578588  0.55749470  0.60981397     0.73820
N1741       N  0.81005910  0.56579953  0.67551086    -0.45130
C1742       C  0.64749116  0.73054746  0.56291571     0.44340
N1743       N  0.67058098  0.54008385  0.57595531    -0.45120
Co1744     Co  0.74302049  0.63031399  0.65840515     0.73890
C1745       C  0.67461124  0.69052382  0.67867605    -0.05450
C1746       C  0.82474647  0.75215815  0.58970217    -0.05010
N1747       N  0.70617534  0.60027682  0.56554697    -0.24540
N1748       N  0.80947612  0.74932850  0.65256122    -0.45300
H1749       H  0.65306140  0.77049340  0.59848225     0.08350
C1750       C  0.67846889  0.51504022  0.64403184    -0.05430
Cl1751     Cl  0.74521708  0.63964372  0.61358638    -0.48430
C1752       C  0.82767875  0.52729486  0.66882581     0.44100
H1753       H  0.67448183  0.62394129  0.53354145     0.08310
N1754       N  0.67791415  0.56410045  0.67454633    -0.45140
C1755       C  0.76025479  0.50094869  0.00006771     0.02060
C1756       C  0.71905901  0.50116405  0.00034829     0.02060
C1757       C  0.75596152  0.74899243  0.00117165     0.02060
C1758       C  0.71487826  0.74911429  0.00136477     0.02060
C1759       C  0.88933580  0.51878711  0.93510041     0.43950
N1760       N  0.94274099  0.53349126  0.91385491     0.02840
C1761       C  0.56239654  0.72234502  0.91827757    -0.05030
H1762       H  0.89697069  0.75037010  0.90401722     0.08330
C1763       C  0.92098419  0.68272144  0.82175712    -0.05390
Co1764     Co  0.98356189  0.61513587  0.93164320     0.74180
N1765       N  0.93882670  0.69622954  0.91271520    -0.24560
Co1766     Co  0.98528433  0.70042686  0.88605925     0.74070
C1767       C  0.90549485  0.72681603  0.82787409     0.44050
N1768       N  0.94604997  0.56834978  0.84154995     0.02460
N1769       N  0.94317647  0.70070730  0.85753385     0.02560
N1770       N  0.55699444  0.66663280  0.94765855    -0.45410
H1771       H  0.89991462  0.57781770  0.96003761     0.08320
N1772       N  0.93836477  0.66322619  0.92979204     0.02850
N1773       N  0.53002447  0.70291741  0.85875320     0.02590
C1774       C  0.57081712  0.73029218  0.83092671     0.44190
N1775       N  0.94676184  0.53597004  0.85901751    -0.24020
C1776       C  0.55924156  0.56306303  0.94823152    -0.04940
N1777       N  0.91142042  0.50540612  0.91567226    -0.45130
N1778       N  0.55205236  0.73881157  0.85242127    -0.45350
C1779       C  0.58468909  0.52848387  0.93843927     0.43970
N1780       N  0.52673060  0.66558287  0.93184567     0.02840
N1781       N  0.53333984  0.53771535  0.85965345    -0.24040
N1782       N  0.94137705  0.56449673  0.93049857    -0.24530
N1783       N  0.53349384  0.57009092  0.84214427     0.02480
H1784       H  0.55885389  0.47121677  0.86161532     0.08370
H1785       H  0.56077950  0.67031844  0.80638962     0.08400
N1786       N  0.52883613  0.69773626  0.91435604    -0.24580
N1787       N  0.94461563  0.66975468  0.84080392    -0.24200
N1788       N  0.53251177  0.53728600  0.91530027     0.02840
C1789       C  0.88374348  0.69954158  0.93663379     0.44240
C1790       C  0.92223631  0.50281717  0.85253736    -0.05450
N1791       N  0.53150308  0.67201101  0.84195396    -0.24190
H1792       H  0.91988417  0.66669917  0.80419861     0.08390
N1793       N  0.90625871  0.66404397  0.94438415    -0.45420
H1794       H  0.91987204  0.47017274  0.86204681     0.08370
C1795       C  0.57186185  0.51864632  0.82785864     0.44070
C1796       C  0.90903851  0.55759695  0.94489899    -0.04940
Co1797     Co  0.98906221  0.53521410  0.88721117     0.73660
N1798       N  0.92289773  0.55806586  0.82263788    -0.45130
C1799       C  0.58126219  0.70114133  0.94057783     0.44340
N1800       N  0.56639245  0.51350469  0.91794901    -0.45120
Co1801     Co  0.98894183  0.61999582  0.84142074     0.73890
C1802       C  0.55695353  0.68608464  0.82387885    -0.05450
C1803       C  0.90549110  0.72143323  0.91563836    -0.05010
N1804       N  0.52856334  0.56716525  0.93242492    -0.24540
N1805       N  0.92079314  0.73565530  0.85028921    -0.45300
H1806       H  0.57265102  0.75043954  0.90654329     0.08350
C1807       C  0.55727775  0.50427845  0.85252927    -0.05430
Cl1808     Cl  0.98688394  0.61775805  0.88642605    -0.48430
C1809       C  0.90612018  0.51755197  0.82846748     0.44100
H1810       H  0.56425294  0.58341437  0.96395792     0.08310
N1811       N  0.55542485  0.55953253  0.82271423    -0.45140
C1812       C  0.61778977  0.90016858  0.74992151     0.02060
C1813       C  0.61726892  0.85414847  0.75093238     0.02060
C1814       C  0.86740258  0.85710262  0.74998043     0.02060
C1815       C  0.86757959  0.90278548  0.74911685     0.02060
C1816       C  0.61580182  0.64857466  0.25002809     0.02060
C1817       C  0.61651986  0.60272034  0.25112151     0.02060
C1818       C  0.86608963  0.64562324  0.25066291     0.02060
C1819       C  0.86645664  0.59995844  0.25148922     0.02060
C1820       C  0.89050491  0.98298115  0.06452810     0.43950
N1821       N  0.94310546  0.96843379  0.08640778     0.02840
C1822       C  0.56233572  0.77932972  0.08411801    -0.05030
H1823       H  0.89716657  0.75110655  0.09746850     0.08330
C1824       C  0.91755308  0.82126194  0.17876915    -0.05390
Co1825     Co  0.98413495  0.88634042  0.06946984     0.74180
N1826       N  0.93893323  0.80542229  0.08855274    -0.24560
Co1827     Co  0.98449508  0.80202063  0.11553844     0.74070
C1828       C  0.90233190  0.77689263  0.17281583     0.44050
N1829       N  0.94406232  0.93488078  0.15890689     0.02460
N1830       N  0.94146169  0.80225414  0.14357921     0.02560
N1831       N  0.55792249  0.83445378  0.05435932    -0.45410
H1832       H  0.90135105  0.92320817  0.04015241     0.08320
N1833       N  0.93873468  0.83807435  0.07127086     0.02850
N1834       N  0.52841309  0.80025886  0.14313150     0.02590
C1835       C  0.56863543  0.77336941  0.17123961     0.44190
N1836       N  0.94544481  0.96706324  0.14133911    -0.24020
C1837       C  0.56034818  0.93820928  0.05326063    -0.04940
N1838       N  0.91205776  0.99663373  0.08409062    -0.45130
N1839       N  0.55056527  0.76468960  0.14959520    -0.45350
C1840       C  0.58560127  0.97306821  0.06301407     0.43970
N1841       N  0.52728045  0.83591930  0.06993843     0.02840
N1842       N  0.53201578  0.96512263  0.14149344    -0.24040
N1843       N  0.94204753  0.93704440  0.06996379    -0.24530
N1844       N  0.53145353  0.93304174  0.15916979     0.02480
H1845       H  0.55810029  0.03148439  0.13942090     0.08370
H1846       H  0.55738465  0.83313165  0.19576676     0.08400
N1847       N  0.52882429  0.80412433  0.08763761    -0.24580
N1848       N  0.94222650  0.83362611  0.16006655    -0.24200
N1849       N  0.53283859  0.96461755  0.08581013     0.02840
C1850       C  0.88441354  0.80103712  0.06447748     0.44240
C1851       C  0.92107181  0.00046880  0.14757294    -0.05450
N1852       N  0.52917888  0.83117965  0.15992492    -0.24190
H1853       H  0.91562118  0.83783067  0.19613852     0.08390
N1854       N  0.90685599  0.83666278  0.05655018    -0.45420
H1855       H  0.91925762  0.03306492  0.13797692     0.08370
C1856       C  0.56975153  0.98450995  0.17350951     0.44070
C1857       C  0.91017510  0.94376365  0.05522064    -0.04940
Co1858     Co  0.98857309  0.96723398  0.11350344     0.73820
N1859       N  0.92055783  0.94549872  0.17761218    -0.45130
C1860       C  0.58185070  0.80001124  0.06183452     0.44340
N1861       N  0.56680561  0.98847529  0.08324976    -0.45120
Co1862     Co  0.98675222  0.88321528  0.15970588     0.73890
C1863       C  0.55407459  0.81729044  0.17826426    -0.05450
C1864       C  0.90580602  0.77983294  0.08567486    -0.05010
N1865       N  0.52926544  0.93437758  0.06883907    -0.24540
N1866       N  0.91860017  0.76752063  0.15071765    -0.45300
H1867       H  0.57212628  0.75140424  0.09608056     0.08350
C1868       C  0.55598014  0.99857936  0.14865880    -0.05430
Cl1869     Cl  0.98609768  0.88470440  0.11465882    -0.48430
C1870       C  0.90427706  0.98608472  0.17158981     0.44100
H1871       H  0.56567145  0.91757337  0.03768399     0.08310
N1872       N  0.55286182  0.94382382  0.17874589    -0.45140
C1873       C  0.92331712  0.54663593  0.19948797     0.25090
C1874       C  0.89367186  0.01746454  0.19066867    -0.23020
C1875       C  0.85479791  0.01716313  0.20094631     0.20000
C1876       C  0.84566980  0.54544027  0.22012007     0.25030
C1877       C  0.87544664  0.57415452  0.22928680    -0.22960
C1878       C  0.91430633  0.57474542  0.21874853     0.19930
F1879       F  0.94395797  0.60087397  0.22789546    -0.12920
F1880       F  0.96145038  0.54653395  0.19008807    -0.15280
F1881       F  0.80783754  0.54455357  0.22995315    -0.15280
F1882       F  0.82589934  0.98918922  0.19257344    -0.12920
C1883       C  0.86333453  0.70916841  0.18825050     0.25090
C1884       C  0.89412035  0.74085393  0.19166867    -0.23020
C1885       C  0.91868877  0.73674550  0.21288079     0.20000
C1886       C  0.91124299  0.70309509  0.23094678     0.25030
C1887       C  0.87882430  0.67319312  0.22843736    -0.22960
C1888       C  0.85533516  0.67573390  0.20671664     0.19930
F1889       F  0.82328588  0.64780656  0.20411030    -0.12920
F1890       F  0.83998932  0.71188242  0.16758568    -0.15280
F1891       F  0.93498565  0.70059325  0.25146316    -0.15280
F1892       F  0.95013963  0.76522762  0.21621829    -0.12920
C1893       C  0.62369107  0.57664886  0.20721847     0.25090
C1894       C  0.60288252  0.57559808  0.23001833    -0.23020
C1895       C  0.57102353  0.54476015  0.23387794     0.20000
C1896       C  0.56058159  0.01501086  0.21563065     0.25030
C1897       C  0.58158122  0.01564570  0.19292420    -0.22960
C1898       C  0.61272172  0.54729758  0.18869986     0.19930
F1899       F  0.63345471  0.54868381  0.16696644    -0.12920
F1900       F  0.65574937  0.60458607  0.20329772    -0.15280
F1901       F  0.52925815  0.98618603  0.22004998    -0.15280
F1902       F  0.54999094  0.54334005  0.25551266    -0.12920
C1903       C  0.62192795  0.73343142  0.19598833     0.25090
C1904       C  0.58124636  0.73757357  0.18916973    -0.23020
C1905       C  0.55216886  0.70917597  0.20075824     0.20000
C1906       C  0.56353044  0.67817945  0.21972674     0.25030
C1907       C  0.60414241  0.67519675  0.22722605    -0.22960
C1908       C  0.63333940  0.70242696  0.21486021     0.19930
F1909       F  0.67288927  0.69957793  0.22144041    -0.12920
F1910       F  0.65043590  0.76012723  0.18472624    -0.15280
F1911       F  0.53468720  0.65291937  0.23166735    -0.15280
F1912       F  0.51255617  0.71291541  0.19442694    -0.12920
C1913       C  0.57435772  0.96021817  0.76691976     0.25090
C1914       C  0.60453376  0.92753730  0.77111260    -0.23020
C1915       C  0.62404813  0.92493851  0.79432066     0.20000
C1916       C  0.61326373  0.95430898  0.81290139     0.25030
C1917       C  0.58381309  0.48768734  0.80833458    -0.22960
C1918       C  0.56431635  0.49007098  0.78517110     0.19930
F1919       F  0.53470041  0.52069259  0.78027311    -0.12920
F1920       F  0.55445303  0.96331653  0.74493816    -0.15280
F1921       F  0.63252891  0.95112528  0.83508538    -0.15280
F1922       F  0.65464077  0.89535019  0.79866514    -0.12920
C1923       C  0.63435942  0.79541938  0.78375806     0.25090
C1924       C  0.60642821  0.82706989  0.77390471    -0.23020
C1925       C  0.56741010  0.82863162  0.78425913     0.20000
C1926       C  0.55643147  0.79848073  0.80379347     0.25030
C1927       C  0.58405138  0.76590533  0.81292045    -0.22960
C1928       C  0.62311686  0.76486573  0.80293959     0.19930
F1929       F  0.65011965  0.73359131  0.81145532    -0.12920
F1930       F  0.67238975  0.79343838  0.77434795    -0.15280
F1931       F  0.51806651  0.79927309  0.81278336    -0.15280
F1932       F  0.53923846  0.85734504  0.77447960    -0.12920
C1933       C  0.92501742  0.45708976  0.80052740     0.25090
C1934       C  0.89548644  0.48631939  0.80933984    -0.23020
C1935       C  0.85651552  0.98630263  0.79929939     0.20000
C1936       C  0.84713321  0.95755326  0.78039493     0.25030
C1937       C  0.87676838  0.92872768  0.77123722    -0.22960
C1938       C  0.91577181  0.92855672  0.78150324     0.19930
F1939       F  0.94534570  0.90249869  0.77227952    -0.12920
F1940       F  0.96322625  0.45746273  0.80974176    -0.15280
F1941       F  0.80921100  0.95817921  0.77076410    -0.15280
F1942       F  0.82775756  0.51438315  0.80765618    -0.12920
C1943       C  0.91395924  0.80148290  0.76996112     0.25090
C1944       C  0.88041560  0.82978493  0.77219382    -0.23020
C1945       C  0.85658603  0.82634152  0.79380103     0.20000
C1946       C  0.86518619  0.79329836  0.81234487     0.25030
C1947       C  0.89718757  0.76312859  0.80921434    -0.22960
C1948       C  0.92232750  0.76851557  0.78826063     0.19930
F1949       F  0.95516018  0.74189485  0.78542538    -0.12920
F1950       F  0.93806728  0.80502780  0.74958298    -0.15280
F1951       F  0.84127981  0.78941862  0.83278496    -0.15280
F1952       F  0.82373962  0.85304977  0.79623224    -0.12920
C1953       C  0.64701843  0.75528229  0.05750104     0.25090
C1954       C  0.62078084  0.79006942  0.04915591    -0.23020
C1955       C  0.63173580  0.81597918  0.02763508     0.20000
C1956       C  0.66647540  0.80627029  0.01437109     0.25030
C1957       C  0.69037354  0.76906506  0.02125681    -0.22960
C1958       C  0.68145845  0.74469619  0.04352795     0.19930
F1959       F  0.70427664  0.70863703  0.05073451    -0.12920
F1960       F  0.63850897  0.73003090  0.07836955    -0.15280
F1961       F  0.67482376  0.83109051  0.99329285    -0.15280
F1962       F  0.60776762  0.84957413  0.01831590    -0.12920
C1963       C  0.82161949  0.82033740  0.04045834     0.25090
C1964       C  0.84624013  0.78754407  0.05246708    -0.23020
C1965       C  0.83577729  0.74203605  0.05092329     0.20000
C1966       C  0.80341548  0.72958032  0.03596791     0.25030
C1967       C  0.78056653  0.76238328  0.02266830    -0.22960
C1968       C  0.78864682  0.80787568  0.02604593     0.19930
F1969       F  0.76659584  0.84019212  0.01382310    -0.12920
F1970       F  0.83063790  0.86454611  0.04168294    -0.15280
F1971       F  0.79599770  0.68526578  0.03324220    -0.15280
F1972       F  0.85892883  0.70941151  0.06201804    -0.12920
C1973       C  0.68168997  0.75434150  0.95923714     0.25090
C1974       C  0.68983341  0.72981273  0.98153970    -0.23020
C1975       C  0.66494380  0.69329604  0.98844698     0.20000
C1976       C  0.63015702  0.68434912  0.97507997     0.25030
C1977       C  0.62008515  0.71040867  0.95348107    -0.22960
C1978       C  0.64717272  0.74455132  0.94519100     0.19930
F1979       F  0.63950342  0.76989136  0.92425929    -0.12920
F1980       F  0.70537421  0.78984293  0.95205572    -0.15280
F1981       F  0.60536738  0.65127200  0.98431168    -0.15280
F1982       F  0.67247836  0.66837264  0.00957792    -0.12920
C1983       C  0.83401305  0.75741931  0.95023579     0.25090
C1984       C  0.84538891  0.71220164  0.94881787    -0.23020
C1985       C  0.82166675  0.67889156  0.96129792     0.20000
C1986       C  0.78881800  0.69063825  0.97603618     0.25030
C1987       C  0.78002725  0.73594031  0.97934236    -0.22960
C1988       C  0.80186101  0.76917517  0.96558246     0.19930
F1989       F  0.79371521  0.81331378  0.96826089    -0.12920
F1990       F  0.85612454  0.79054293  0.93863367    -0.15280
F1991       F  0.76763773  0.65789794  0.98864489    -0.15280
F1992       F  0.83153710  0.63491009  0.96028007    -0.12920
C1993       C  0.67668658  0.03159560  0.03468079     0.25090
C1994       C  0.69486677  0.99479374  0.02347363    -0.23020
C1995       C  0.68175537  0.95121623  0.03042350     0.20000
C1996       C  0.65005617  0.94465511  0.04707672     0.25030
C1997       C  0.62768680  0.98136847  0.05496448    -0.22960
C1998       C  0.64255862  0.02496257  0.04999322     0.19930
F1999       F  0.62207445  0.56101011  0.05797643    -0.12920
F2000       F  0.68978534  0.57402612  0.02924244    -0.15280
F2001       F  0.63898815  0.90203145  0.05392527    -0.15280
F2002       F  0.69716266  0.91487832  0.01945866    -0.12920
C2003       C  0.81319788  0.03949989  0.02447360     0.25090
C2004       C  0.78507886  0.00398679  0.02307875    -0.23020
C2005       C  0.78756016  0.96784559  0.04069231     0.20000
C2006       C  0.81892825  0.96582598  0.05794642     0.25030
C2007       C  0.85005473  0.99779959  0.05669005    -0.22960
C2008       C  0.84593687  0.03601821  0.04088300     0.19930
F2009       F  0.87594598  0.56718539  0.03924538    -0.12920
F2010       F  0.81142674  0.57531376  0.00809066    -0.15280
F2011       F  0.82190064  0.92937630  0.07384882    -0.15280
F2012       F  0.76357189  0.93135225  0.03923574    -0.12920
C2013       C  0.64176604  0.47705398  0.95127884     0.25090
C2014       C  0.62674329  0.52054875  0.94648133    -0.23020
C2015       C  0.64904535  0.55740827  0.95435267     0.20000
C2016       C  0.68108822  0.55099501  0.97069753     0.25030
C2017       C  0.69431283  0.50747635  0.97750463    -0.22960
C2018       C  0.67603803  0.47059172  0.96639106     0.19930
F2019       F  0.68925733  0.92823037  0.97169994    -0.12920
F2020       F  0.62132091  0.94090288  0.94330705    -0.15280
F2021       F  0.69687409  0.58740034  0.98145113    -0.15280
F2022       F  0.63772837  0.59998167  0.94771432    -0.12920
C2023       C  0.81167854  0.46191001  0.97481375     0.25090
C2024       C  0.78419238  0.49777176  0.97669212    -0.23020
C2025       C  0.78671484  0.53410444  0.95919554     0.20000
C2026       C  0.81787003  0.53615950  0.94173235     0.25030
C2027       C  0.84865239  0.50388538  0.94261702    -0.22960
C2028       C  0.84415266  0.46530935  0.95813632     0.19930
F2029       F  0.87372147  0.43374889  0.95933090    -0.12920
F2030       F  0.80967805  0.92584022  0.99103164    -0.15280
F2031       F  0.82118246  0.57300376  0.92611982    -0.15280
F2032       F  0.76308341  0.57071655  0.96100579    -0.12920
C2033       C  0.62192984  0.95748870  0.68523442     0.25090
C2034       C  0.65318449  0.48878846  0.68836777    -0.23020
C2035       C  0.67497358  0.98733045  0.71077296     0.20000
C2036       C  0.66456916  0.95669986  0.73001561     0.25030
C2037       C  0.63201438  0.92691342  0.72749086    -0.22960
C2038       C  0.61105973  0.92703971  0.70477591     0.19930
F2039       F  0.57875860  0.89954280  0.70200446    -0.12920
F2040       F  0.60067333  0.45793166  0.66374607    -0.15280
F2041       F  0.68595362  0.95666733  0.75147157    -0.15280
F2042       F  0.70655147  0.51564178  0.71413994    -0.12920
C2043       C  0.60919887  0.76768611  0.70158353     0.25090
C2044       C  0.64833555  0.76818134  0.69162140    -0.23020
C2045       C  0.67705394  0.79870685  0.70026866     0.20000
C2046       C  0.66690846  0.82779945  0.71899053     0.25030
C2047       C  0.62764217  0.82730060  0.72907068    -0.22960
C2048       C  0.59884652  0.79714349  0.72005206     0.19930
F2049       F  0.56067627  0.79594511  0.72937607    -0.12920
F2050       F  0.58106259  0.73853954  0.69346980    -0.15280
F2051       F  0.69594222  0.85474836  0.72812731    -0.15280
F2052       F  0.71544231  0.79901476  0.69127174    -0.12920
C2053       C  0.87808885  0.49165782  0.69744209     0.25090
C2054       C  0.83917180  0.49218429  0.68732254    -0.23020
C2055       C  0.81017948  0.96076919  0.69615899     0.20000
C2056       C  0.81969005  0.93004921  0.71558249     0.25030
C2057       C  0.85850262  0.93009107  0.72614247    -0.22960
C2058       C  0.88780899  0.96062354  0.71662969     0.19930
F2059       F  0.92562775  0.96106169  0.72638927    -0.12920
F2060       F  0.90634362  0.52183426  0.68909624    -0.15280
F2061       F  0.79038530  0.90225598  0.72504520    -0.15280
F2062       F  0.77207427  0.96139108  0.68678249    -0.12920
C2063       C  0.81303794  0.76929533  0.71469428     0.25090
C2064       C  0.83665469  0.76733934  0.69313079    -0.23020
C2065       C  0.86822749  0.79841066  0.68898312     0.20000
C2066       C  0.87749941  0.82948959  0.70688421     0.25030
C2067       C  0.85452216  0.83040605  0.72879560    -0.22960
C2068       C  0.82181669  0.80061905  0.73227082     0.19930
F2069       F  0.79852814  0.80155299  0.75296833    -0.12920
F2070       F  0.78085428  0.74146082  0.71860454    -0.15280
F2071       F  0.90988527  0.85712854  0.70337468    -0.15280
F2072       F  0.89077655  0.79764951  0.66798027    -0.12920
C2073       C  0.62268002  0.54505884  0.31559332     0.25090
C2074       C  0.65476030  0.01503505  0.31222691    -0.23020
C2075       C  0.67633450  0.01748489  0.28970450     0.20000
C2076       C  0.66498692  0.54786353  0.27058543     0.25030
C2077       C  0.63163496  0.57629836  0.27334798    -0.22960
C2078       C  0.61084571  0.57518295  0.29616817     0.19930
F2079       F  0.57779509  0.60132866  0.29915718    -0.12920
F2080       F  0.60152510  0.54355574  0.33716983    -0.15280
F2081       F  0.68620415  0.54888021  0.24901783    -0.15280
F2082       F  0.70855036  0.99031560  0.28608838    -0.12920
C2083       C  0.67838610  0.71087168  0.29633072     0.25090
C2084       C  0.64868299  0.73736265  0.30726527    -0.23020
C2085       C  0.60804667  0.73204841  0.30072264     0.20000
C2086       C  0.59728235  0.70152386  0.28288731     0.25030
C2087       C  0.62703586  0.67567868  0.27147441    -0.22960
C2088       C  0.66766417  0.68024410  0.27852937     0.19930
F2089       F  0.69704584  0.65639003  0.26748466    -0.12920
F2090       F  0.71789011  0.71536278  0.30260139    -0.15280
F2091       F  0.55774879  0.69728990  0.27663023    -0.15280
F2092       F  0.57886940  0.75648423  0.31156889    -0.12920
C2093       C  0.81103619  0.04176262  0.30535820     0.25090
C2094       C  0.84094249  0.01184215  0.31443030    -0.23020
C2095       C  0.87969854  0.51328579  0.30400680     0.20000
C2096       C  0.88834679  0.54367772  0.28427975     0.25030
C2097       C  0.85815743  0.57270187  0.27459773    -0.22960
C2098       C  0.81953501  0.57194723  0.28547129     0.19930
F2099       F  0.78952716  0.59849860  0.27593872    -0.12920
F2100       F  0.77302889  0.04006003  0.31494178    -0.15280
F2101       F  0.92603872  0.54421327  0.27425185    -0.15280
F2102       F  0.90880087  0.48449941  0.31253820    -0.12920
C2103       C  0.87650914  0.67246445  0.29392301     0.25090
C2104       C  0.85363382  0.67227282  0.27197507    -0.23020
C2105       C  0.82215517  0.70345795  0.26834771     0.20000
C2106       C  0.81470495  0.73553317  0.28569922     0.25030
C2107       C  0.83799695  0.73642971  0.30740006    -0.22960
C2108       C  0.86817950  0.70394286  0.31175355     0.19930
F2109       F  0.89036760  0.70371006  0.33289032    -0.12920
F2110       F  0.90809102  0.64389773  0.29749468    -0.15280
F2111       F  0.78411908  0.76519765  0.28139481    -0.15280
F2112       F  0.79902467  0.70342312  0.24759106    -0.12920
C2113       C  0.58992495  0.69891125  0.54009316     0.25090
C2114       C  0.60635361  0.73551057  0.55226439    -0.23020
C2115       C  0.58546991  0.77661392  0.55103308     0.20000
C2116       C  0.55158471  0.78209808  0.53537229     0.25030
C2117       C  0.53874143  0.74653191  0.52090048    -0.22960
C2118       C  0.55707466  0.70449802  0.52434304     0.19930
F2119       F  0.54461844  0.66915295  0.51127596    -0.12920
F2120       F  0.60671989  0.65763997  0.54263228    -0.15280
F2121       F  0.53294105  0.82259016  0.53323400    -0.15280
F2122       F  0.59939530  0.81205097  0.56347006    -0.12920
C2123       C  0.89260047  0.78740933  0.54482019     0.25090
C2124       C  0.88792792  0.74770191  0.55933980    -0.23020
C2125       C  0.91719722  0.71377910  0.55813145     0.20000
C2126       C  0.94754669  0.71671353  0.54006315     0.25030
C2127       C  0.94935444  0.75427156  0.52343902    -0.22960
C2128       C  0.92325739  0.79072708  0.52698098     0.19930
F2129       F  0.92503808  0.82785404  0.51156966    -0.12920
F2130       F  0.86462229  0.82057326  0.54579759    -0.15280
F2131       F  0.97194230  0.68083045  0.53707681    -0.15280
F2132       F  0.91383235  0.67585132  0.57288937    -0.12920
C2133       C  0.58405554  0.80849578  0.45316385     0.25090
C2134       C  0.60068069  0.77084363  0.44213846    -0.23020
C2135       C  0.58005230  0.72964822  0.44441360     0.20000
C2136       C  0.54689405  0.72493267  0.46066314     0.25030
C2137       C  0.53533316  0.76108665  0.47505373    -0.22960
C2138       C  0.55254253  0.80342999  0.47004572     0.19930
F2139       F  0.54086722  0.83929856  0.48293235    -0.12920
F2140       F  0.60034700  0.84987372  0.44897144    -0.15280
F2141       F  0.52824465  0.68447675  0.46372935    -0.15280
F2142       F  0.59407501  0.69332297  0.43281712    -0.12920
C2143       C  0.94319464  0.78648828  0.45993929     0.25090
C2144       C  0.94680827  0.74973132  0.47698384    -0.23020
C2145       C  0.92129221  0.71225339  0.47461622     0.20000
C2146       C  0.88972516  0.71368004  0.45740373     0.25030
C2147       C  0.88369946  0.75237510  0.44225364    -0.22960
C2148       C  0.91205904  0.78747358  0.44246939     0.19930
F2149       F  0.90688093  0.82483866  0.42747976    -0.12920
F2150       F  0.96676802  0.82342114  0.46187696    -0.15280
F2151       F  0.86243407  0.67955911  0.45750264    -0.15280
F2152       F  0.92489956  0.67573581  0.49036242    -0.12920
C2153       C  0.55130820  0.50389488  0.54217998     0.25090
C2154       C  0.54181144  0.52403740  0.51881103    -0.23020
C2155       C  0.56678155  0.55841200  0.50908360     0.20000
C2156       C  0.60334665  0.56802748  0.52027834     0.25030
C2157       C  0.61427033  0.54719124  0.54332617    -0.22960
C2158       C  0.58703966  0.51588187  0.55454079     0.19930
F2159       F  0.59576392  0.49541660  0.57683845    -0.12920
F2160       F  0.52763998  0.97047014  0.55214295    -0.15280
F2161       F  0.62892013  0.59560057  0.50717278    -0.15280
F2162       F  0.55790012  0.57948751  0.48696032    -0.12920
C2163       C  0.89692150  0.49942910  0.55153979     0.25090
C2164       C  0.88600290  0.54500484  0.55057518    -0.23020
C2165       C  0.91099522  0.57601326  0.53708666     0.20000
C2166       C  0.94359971  0.56141549  0.52313606     0.25030
C2167       C  0.95162733  0.51557342  0.52198588    -0.22960
C2168       C  0.92932800  0.48479666  0.53718662     0.19930
F2169       F  0.93743082  0.94019442  0.53700694    -0.12920
F2170       F  0.87444515  0.96860830  0.56475772    -0.15280
F2171       F  0.96526849  0.59183324  0.50910415    -0.15280
F2172       F  0.90300469  0.62055040  0.53627982    -0.12920
C2173       C  0.58652769  0.98593680  0.44617052     0.25090
C2174       C  0.61338264  0.95405610  0.45702080    -0.23020
C2175       C  0.60217946  0.93242415  0.47987805     0.20000
C2176       C  0.56596755  0.94234020  0.49138711     0.25030
C2177       C  0.54137263  0.97708958  0.48196764    -0.22960
C2178       C  0.55090219  0.99769662  0.45869851     0.19930
F2179       F  0.52738975  0.53136817  0.44902991    -0.12920
F2180       F  0.59548683  0.50706148  0.42405923    -0.15280
F2181       F  0.55712636  0.92115557  0.51352499    -0.15280
F2182       F  0.62713789  0.90369468  0.49253807    -0.12920
C2183       C  0.90931747  0.92278428  0.46556169     0.25090
C2184       C  0.88509977  0.95397041  0.45178116    -0.23020
C2185       C  0.89701961  0.99931712  0.45051483     0.20000
C2186       C  0.92961732  0.01364060  0.46480650     0.25030
C2187       C  0.95128361  0.98276879  0.48017222    -0.22960
C2188       C  0.94232578  0.93705139  0.47932209     0.19930
F2189       F  0.96371472  0.90652695  0.49332681    -0.12920
F2190       F  0.90026355  0.87846518  0.46673430    -0.15280
F2191       F  0.93855625  0.05810872  0.46476302    -0.15280
F2192       F  0.87540114  0.03030570  0.43697918    -0.12920
loop_ 
_geom_bond_atom_site_label_1 
_geom_bond_atom_site_label_2 
_geom_bond_distance 
_geom_bond_site_symmetry_2 
_ccdc_geom_bond_type 
C1          C523   1.484   1_565  S
C1         C1091   1.486       .  S
C1         C1646   1.356   1_565  D
C2          C533   1.488       .  S
C2         C1058   1.491       .  S
C2         C1645   1.356   1_455  D
C3          C483   1.487       .  S
C3          C500   1.488       .  S
C3         C1100   1.352       .  D
C4          C473   1.484       .  S
C4          C493   1.482       .  S
C4         C1099   1.352   1_455  D
C5           N23   1.361       .  A
C5           C42   1.453       .  S
C5          C540   1.490       .  S
N6           N23   1.332       .  A
N6           N28   1.318       .  A
N6          Co43   2.122       .  S
C7           N32   1.351       .  A
C7           C45   1.467       .  S
C7           H52   1.081       .  S
H8           C49   1.081       .  S
C9           N33   1.338       .  A
C9           C13   1.465       .  S
C9           H38   1.082       .  S
Co10         N28   2.056       .  S
Co10         N18   2.054       .  S
Co10         N50   2.048       .  S
Co10         N26   2.066       .  S
Co10        Cl54   2.434       .  S
N11          C49   1.348       .  A
N11          N18   1.316       .  A
N11         Co12   2.088       .  S
Co12         N15   2.071       .  S
Co12         N32   2.092       .  S
Co12         N19   2.072       .  S
Co12        Cl54   2.459       .  S
C13          N51   1.347       .  A
C13         C463   1.469       .  S
N14          N21   1.320       .  A
N14          N44   1.323       .  A
N14         Co47   2.090       .  S
N15          N33   1.319       .  A
N15          N51   1.322       .  A
N16          C45   1.341       .  A
N16          N26   1.315       .  A
H17          C42   1.080       .  S
N18          N39   1.317       .  A
N19          N37   1.319       .  A
N19          N24   1.322       .  A
C20          N24   1.347       .  A
C20          C48   1.465       .  S
C20         C440   1.472       .  S
N21          C36   1.338       .  A
N21         Co43   2.075       .  S
C22          N50   1.323       .  A
C22          C25   1.450       .  S
C22          H56   1.077       .  S
C25          N46   1.365       .  A
C25         C530   1.494       .  S
N26          N32   1.317       .  A
N27          C53   1.346       .  A
N27          N29   1.323       .  A
N27         Co43   2.099       .  S
N28          C42   1.332       .  A
N29          N57   1.321       .  A
N29         Co47   2.088       .  S
H30          C53   1.081       .  S
H31          C48   1.082       .  S
N33         Co47   2.086       .  S
N34          N46   1.335       .  A
N34          N50   1.315       .  A
N34         Co43   2.117       .  S
C35          N39   1.341       .  A
C35          C49   1.462       .  S
C35         C503   1.462       .  S
C36          C55   1.458       .  S
C36          H40   1.082       .  S
N37          C48   1.343       .  A
N37         Co47   2.096       .  S
C41          N57   1.349       .  A
C41          C53   1.466       .  S
C41         C430   1.482       .  S
Co43        Cl54   2.467       .  S
N44          C55   1.350       .  A
C45         C490   1.475       .  S
Co47        Cl54   2.428       .  S
C55         C450   1.465       .  S
C58          N76   1.361       .  A
C58          C95   1.450       .  S
C58         C520   1.488       .  S
N59          N76   1.333       .  A
N59          N81   1.317       .  A
N59         Co96   2.120       .  S
C60          N85   1.353       .  A
C60          C98   1.471       .  S
C60         H105   1.081       .  S
H61         C102   1.081       .  S
C62          N86   1.338       .  A
C62          C66   1.464       .  S
C62          H91   1.082       .  S
Co63         N81   2.050       .  S
Co63         N71   2.058       .  S
Co63        N103   2.055       .  S
Co63         N79   2.067       .  S
Co63       Cl107   2.437       .  S
N64         C102   1.348       .  A
N64          N71   1.317       .  A
N64         Co65   2.090       .  S
Co65         N68   2.074       .  S
Co65         N85   2.100       .  S
Co65         N72   2.078       .  S
Co65       Cl107   2.465       .  S
C66         N104   1.348       .  A
C66         C420   1.470       .  S
N67          N74   1.321       .  A
N67          N97   1.324       .  A
N67        Co100   2.094       .  S
N68          N86   1.319       .  A
N68         N104   1.322       .  A
N69          C98   1.343       .  A
N69          N79   1.316       .  A
H70          C95   1.080       .  S
N71          N92   1.318       .  A
N72          N90   1.321       .  A
N72          N77   1.323       .  A
C73          N77   1.349       .  A
C73         C101   1.464       .  S
C73         C400   1.475       .  S
N74          C89   1.338       .  A
N74         Co96   2.072       .  S
C75         N103   1.325       .  A
C75          C78   1.454       .  S
C75         H109   1.077       .  S
C78          N99   1.363       .  A
C78         C513   1.495       .  S
N79          N85   1.317       .  A
N80         C106   1.346       .  A
N80          N82   1.323       .  A
N80         Co96   2.098       .  S
N81          C95   1.330       .  A
N82         N110   1.321       .  A
N82        Co100   2.089       .  S
H83         C106   1.082   1_565  S
H84         C101   1.082       .  S
N86        Co100   2.086       .  S
N87          N99   1.334       .  A
N87         N103   1.316       .  A
N87         Co96   2.113       .  S
C88          N92   1.342       .  A
C88         C102   1.461       .  S
C88         C480   1.465       .  S
C89         C108   1.457       .  S
C89          H93   1.082   1_545  S
N90         C101   1.343       .  A
N90        Co100   2.098       .  S
C94         N110   1.349       .  A
C94         C106   1.466       .  S
C94         C390   1.482   1_545  S
Co96       Cl107   2.465       .  S
N97         C108   1.351       .  A
C98         C470   1.482       .  S
Co100      Cl107   2.425       .  S
C108        C410   1.465   1_545  S
C111        C380   1.496   1_544  S
C111        C908   1.496       .  S
C111        C112   1.362       .  D
C112        C373   1.487   1_554  S
C112        C898   1.487   1_545  S
C113        C323   1.487       .  S
C113        C343   1.488   1_554  S
C113        C114   1.358       .  D
C114        C313   1.490       .  S
C114        C330   1.489   1_554  S
C115        N133   1.353       .  A
C115        C152   1.447       .  S
C115        C383   1.466       .  S
N116        N133   1.331       .  A
N116        N138   1.318       .  A
N116       Co153   2.099       .  S
C117        N142   1.351       .  A
C117        C155   1.475       .  S
C117        H162   1.081       .  S
H118        C159   1.082       .  S
C119        N143   1.336       .  A
C119        C123   1.462       .  S
C119        H148   1.081       .  S
Co120       N138   2.055       .  S
Co120       N128   2.072       .  S
Co120      N1256   2.064       .  S
Co120      N1232   2.071       .  S
Co120      Cl164   2.442       .  S
N121        C159   1.348       .  A
N121        N128   1.318       .  A
N121       Co122   2.103       .  S
Co122       N125   2.078       .  S
Co122      N1238   2.100       .  S
Co122      N1225   2.086       .  S
Co122      Cl164   2.463       .  S
C123        N161   1.349       .  A
C123        C303   1.472       .  S
N124        N131   1.319       .  A
N124        N154   1.324       .  A
N124       Co157   2.090       .  S
N125        N143   1.320       .  A
N125        N161   1.324       .  A
N126        C155   1.345       .  A
N126        N136   1.318       .  A
H127        C152   1.080       .  S
N128        N149   1.322       .  A
N129        N147   1.322       .  A
N129        N134   1.325       .  A
N129      Co1218   2.086   1_455  S
C130        N134   1.350       .  A
C130        C158   1.460       .  S
C130        C283   1.473       .  S
N131        C146   1.336       .  A
N131       Co153   2.068       .  S
C132        N160   1.329       .  A
C132        C135   1.449       .  S
C132        H166   1.078       .  S
C135        N156   1.354       .  A
C135        C370   1.473       .  S
N136        N142   1.317       .  A
N136      Co1216   2.071   1_455  S
N137        C163   1.343       .  A
N137        N139   1.321       .  A
N137      Co1249   2.085   1_455  S
N138        C152   1.331       .  A
N139        N167   1.324       .  A
N139      Co1253   2.094   1_455  S
H140        C163   1.082   1_565  S
H141        C158   1.081       .  S
N142      Co1218   2.100   1_455  S
N143       Co157   2.086       .  S
N144        N156   1.331       .  A
N144        N160   1.319       .  A
N144      Co1249   2.093   1_455  S
C145        N149   1.346       .  A
C145        C159   1.469       .  S
C145        C340   1.485       .  S
C146        C165   1.456       .  S
C146        H150   1.082   1_545  S
N147        C158   1.340       .  A
N147      Co1253   2.092   1_455  S
C151        N167   1.353       .  A
C151        C163   1.462       .  S
C151        C273   1.485   1_545  S
Co153      N1233   2.085       .  S
Co153      N1240   2.093       .  S
Co153      Cl164   2.459       .  S
N154        C165   1.352       .  A
C155        C333   1.492       .  S
Co157      N1235   2.094       .  S
Co157      N1243   2.092       .  S
Co157      Cl164   2.430       .  S
N160      Co1216   2.064   1_455  S
C165        C290   1.464   1_545  S
C168        C270   1.500       .  S
C168        C393   1.495       .  S
C168        C169   1.370       .  D
C169        C280   1.492       .  S
C169        C403   1.495       .  S
C170        C300   1.484       .  S
C170        C423   1.485       .  S
C170        C171   1.360       .  D
C171        C293   1.483       .  S
C171        C413   1.485       .  S
C172        C263   1.487       .  S
C172        C443   1.488       .  S
C172        C173   1.365       .  D
C173        C250   1.496       .  S
C173        C433   1.493       .  S
C174        C243   1.484       .  S
C174        C460   1.485       .  S
C174        C175   1.360       .  D
C175        C233   1.483       .  S
C175        C453   1.483       .  S
C176        N194   1.352       .  A
C176        C213   1.448       .  S
C176        C363   1.466       .  S
N177        N194   1.330       .  A
N177        N199   1.319       .  A
N177       Co214   2.099       .  S
C178        N203   1.351       .  A
C178        C216   1.475       .  S
C178        H223   1.081       .  S
H179        C220   1.082       .  S
C180        N204   1.336       .  A
C180        C184   1.463       .  S
C180        H209   1.081       .  S
Co181       N199   2.057       .  S
Co181       N189   2.076       .  S
Co181      N1317   2.064       .  S
Co181      N1293   2.073       .  S
Co181      Cl225   2.440       .  S
N182        C220   1.346       .  A
N182        N189   1.318       .  A
N182       Co183   2.097       .  S
Co183       N186   2.077       .  S
Co183      N1299   2.099       .  S
Co183      N1286   2.081       .  S
Co183      Cl225   2.463       .  S
C184        N222   1.349       .  A
C184        C240   1.471       .  S
N185        N192   1.319       .  A
N185        N215   1.324       .  A
N185       Co218   2.090       .  S
N186        N204   1.320       .  A
N186        N222   1.323       .  A
N187        C216   1.345       .  A
N187        N197   1.318       .  A
H188        C213   1.080       .  S
N189        N210   1.323       .  A
N190        N208   1.322       .  A
N190        N195   1.324       .  A
N190      Co1279   2.081   1_455  S
C191        N195   1.349       .  A
C191        C219   1.461       .  S
C191        C260   1.470       .  S
N192        C207   1.336       .  A
N192       Co214   2.070       .  S
C193        N221   1.329       .  A
C193        C196   1.449       .  S
C193        H227   1.078       .  S
C196        N217   1.355       .  A
C196        C353   1.474       .  S
N197        N203   1.317       .  A
N197      Co1277   2.073   1_455  S
N198        C224   1.343       .  A
N198        N200   1.321       .  A
N198      Co1310   2.086   1_455  S
N199        C213   1.332       .  A
N200        N228   1.324       .  A
N200      Co1314   2.092   1_455  S
H201        C224   1.082       .  S
H202        C219   1.081       .  S
N203      Co1279   2.099   1_455  S
N204       Co218   2.083       .  S
N205        N217   1.331       .  A
N205        N221   1.319       .  A
N205      Co1310   2.095   1_455  S
C206        N210   1.348       .  A
C206        C220   1.466       .  S
C206        C320   1.483       .  S
C207        C226   1.457       .  S
C207        H211   1.082       .  S
N208        C219   1.341       .  A
N208      Co1314   2.093   1_455  S
C212        N228   1.352       .  A
C212        C224   1.462       .  S
C212        C253   1.483       .  S
Co214      N1294   2.086       .  S
Co214      N1301   2.095       .  S
Co214      Cl225   2.458       .  S
N215        C226   1.351       .  A
C216        C310   1.493       .  S
Co218      N1296   2.092       .  S
Co218      N1304   2.093       .  S
Co218      Cl225   2.432       .  S
N221      Co1277   2.064   1_455  S
C226        C230   1.465       .  S
C229        C234   1.397       .  A
C229        C778   1.406       .  A
C229        F236   1.358       .  S
C230        C231   1.399       .  A
C230        C777   1.406       .  A
C231        C780   1.397       .  A
C231        F238   1.358       .  S
C232        C233   1.408       .  A
C232        C779   1.397       .  A
C232        F237   1.358       .  S
C233        C234   1.404       .  A
C234        F235   1.358       .  S
C239        C240   1.405       .  A
C239        C244   1.403       .  A
C239        F246   1.357       .  S
C240        C241   1.406       .  A
C241        C242   1.389       .  A
C241        F248   1.358       .  S
C242        C243   1.403       .  A
C242        F247   1.358       .  S
C243        C244   1.407       .  A
C244        F245   1.357       .  S
C249        C250   1.409       .  A
C249        C254   1.405       .  A
C249        F256   1.357       .  S
C250        C251   1.405       .  A
C251        C800   1.398       .  A
C251        F258   1.358       .  S
C252        C253   1.408       .  A
C252        C799   1.398       .  A
C252        F257   1.358       .  S
C253        C802   1.406       .  A
C254        C801   1.406       .  A
C254        F255   1.357       .  S
C259        C260   1.399       .  A
C259        C264   1.398       .  A
C259        F266   1.358       .  S
C260        C261   1.407       .  A
C261        C262   1.401       .  A
C261        F268   1.357       .  S
C262        C263   1.405       .  A
C262        F267   1.358       .  S
C263        C264   1.408       .  A
C264        F265   1.357       .  S
C269        C270   1.407       .  A
C269        C822   1.397       .  A
C269        F276   1.358       .  S
C270        C271   1.410       .  A
C271        C272   1.407       .  A
C271        F278   1.357       .  S
C272        C821   1.407       .  A
C272        F277   1.357       .  S
C273        C274   1.407       .  A
C273        C820   1.407       .  A
C274        C817   1.397       .  A
C274        F275   1.358   1_565  S
C279        C280   1.409       .  A
C279        C284   1.398       .  A
C279        F286   1.358       .  S
C280        C281   1.407       .  A
C281        C282   1.402       .  A
C281        F288   1.358       .  S
C282        C283   1.408       .  A
C282        F287   1.358       .  S
C283        C284   1.400       .  A
C284        F285   1.358       .  S
C289        C290   1.406       .  A
C289        C842   1.396       .  A
C289        F296   1.358       .  S
C290        C839   1.398       .  A
C291        C292   1.397       .  A
C291        C838   1.398       .  A
C291        F846   1.358       .  S
C292        C293   1.408       .  A
C292        F297   1.358       .  S
C293        C294   1.404       .  A
C294        C837   1.396       .  A
C294        F295   1.358       .  S
F298        C839   1.358   1_545  S
C299        C300   1.403       .  A
C299        C304   1.391       .  A
C299        F306   1.358       .  S
C300        C301   1.407       .  A
C301        C302   1.403       .  A
C301        F308   1.357       .  S
C302        C303   1.405       .  A
C302        F307   1.357       .  S
C303        C304   1.406       .  A
C304        F305   1.358       .  S
C309        C310   1.412       .  A
C309        C314   1.409       .  A
C309        F316   1.356       .  S
C310        C311   1.413       .  A
C311        C312   1.390       .  A
C311        F318   1.358       .  S
C312        C313   1.400       .  A
C312        F317   1.357   1_554  S
C313        C314   1.408       .  A
C314        F315   1.357       .  S
C319        C320   1.409       .  A
C319        C324   1.399       .  A
C319        F326   1.355       .  S
C320        C321   1.405       .  A
C321        C322   1.401       .  A
C321        F328   1.357       .  S
C322        C323   1.409       .  A
C322        F327   1.357       .  S
C323        C324   1.401       .  A
C324        F325   1.357       .  S
C329        C330   1.408       .  A
C329        C334   1.408       .  A
C329        F336   1.357       .  S
C330        C331   1.400       .  A
C331        C332   1.390       .  A
C331        F338   1.357   1_556  S
C332        C333   1.413       .  A
C332        F337   1.358       .  S
C333        C334   1.411       .  A
C334        F335   1.356       .  S
C339        C340   1.405       .  A
C339        C344   1.402       .  A
C339        F346   1.357       .  S
C340        C341   1.411       .  A
C341        C342   1.400       .  A
C341        F348   1.355       .  S
C342        C343   1.401       .  A
C342        F347   1.357       .  S
C343        C344   1.409       .  A
C344        F345   1.357       .  S
C349        C350   1.411       .  A
C349        C354   1.406       .  A
C349        F904   1.355       .  S
C350        C660   1.487       .  S
C350        C351   1.403       .  A
C351        C352   1.388       .  A
C351        F358   1.357       .  S
C352        C353   1.403       .  A
C352        F357   1.356       .  S
C353        C354   1.403       .  A
C354        F903   1.357       .  S
F355        C902   1.357       .  S
F356        C897   1.355       .  S
C359        C360   1.412       .  A
C359        C364   1.401       .  A
C359        F914   1.357       .  S
C360        C659   1.496       .  S
C360        C361   1.408       .  A
C361        C362   1.395       .  A
C361        F368   1.350       .  S
C362        C363   1.400       .  A
C362        F367   1.358       .  S
C363        C364   1.400       .  A
C364        F913   1.358       .  S
F365        C912   1.358       .  S
F366        C907   1.357       .  S
C369        C370   1.402   1_565  A
C369        C374   1.406       .  A
C369        F924   1.357       .  S
C370        C371   1.403       .  A
C371        C372   1.388       .  A
C371        F378   1.356       .  S
C372        C373   1.403       .  A
C372        F377   1.357       .  S
C373        C374   1.411   1_545  A
C374        F923   1.355       .  S
F375        C922   1.355       .  S
F376        C917   1.357       .  S
C379        C380   1.411       .  A
C379        C384   1.401       .  A
C379        F934   1.357       .  S
C380        C381   1.407   1_565  A
C381        C382   1.395       .  A
C381        F388   1.350       .  S
C382        C383   1.401       .  A
C382        F387   1.358       .  S
C383        C384   1.400   1_545  A
C384        F385   1.357       .  S
F386        C927   1.357       .  S
C389        C394   1.407       .  A
C389        C938   1.406       .  A
C389        F944   1.357       .  S
C390        C937   1.406       .  A
C390        C939   1.408       .  A
C391        C392   1.395       .  A
C391        C938   1.408       .  A
C391        F946   1.358       .  S
C392        C393   1.404       .  A
C392        F397   1.358       .  S
C393        C394   1.410       .  A
C394        F395   1.357       .  S
F396        C937   1.357       .  S
F398        C939   1.358   1_545  S
C399        C400   1.400       .  A
C399        C404   1.400       .  A
C399        F406   1.358       .  S
C400        C401   1.408       .  A
C401        C402   1.402       .  A
C401        F408   1.358       .  S
C402        C403   1.407       .  A
C402        F407   1.358       .  S
C403        C404   1.410       .  A
C404        F405   1.358       .  S
C409        C410   1.398       .  A
C409        C962   1.396       .  A
C409        F416   1.358   1_565  S
C410        C959   1.406       .  A
C411        C412   1.398       .  A
C411        C958   1.406       .  A
C411        F418   1.358       .  S
C412        C413   1.405       .  A
C412        F417   1.358       .  S
C413        C414   1.408       .  A
C414        C957   1.396       .  A
C414        F415   1.358       .  S
C419        C420   1.405       .  A
C419        C424   1.391       .  A
C419        F426   1.358       .  S
C420        C421   1.405       .  A
C421        C422   1.402       .  A
C421        F428   1.358       .  S
C422        C423   1.407       .  A
C422        F427   1.357       .  S
C423        C424   1.404       .  A
C424        F425   1.358       .  S
C429        C434   1.407       .  A
C429        C978   1.406       .  A
C429        F436   1.357       .  S
C430        C431   1.408       .  A
C430        C977   1.406       .  A
C431        C980   1.395       .  A
C431        F438   1.358       .  S
C432        C433   1.404       .  A
C432        C979   1.395       .  A
C432        F437   1.358       .  S
C433        C434   1.409       .  A
C434        F435   1.357       .  S
C439        C440   1.407       .  A
C439        C444   1.400       .  A
C439        F446   1.357       .  S
C440        C441   1.400       .  A
C441        C442   1.400       .  A
C441        F448   1.358       .  S
C442        C443   1.409       .  A
C442        F447   1.357       .  S
C443        C444   1.405       .  A
C444        F445   1.358       .  S
C449        C450   1.407       .  A
C449       C1002   1.398       .  A
C449        F456   1.358       .  S
C450        C999   1.398       .  A
C451        C452   1.396       .  A
C451        C998   1.398       .  A
C451        F458   1.358   1_545  S
C452        C453   1.408       .  A
C452        F457   1.358       .  S
C453        C454   1.404       .  A
C454        C997   1.398       .  A
C454        F455   1.358       .  S
C459        C460   1.407       .  A
C459        C464   1.401       .  A
C459        F466   1.357       .  S
C460        C461   1.405       .  A
C461        C462   1.390       .  A
C461        F468   1.358       .  S
C462        C463   1.405       .  A
C462        F467   1.358       .  S
C463        C464   1.404       .  A
C464        F465   1.358       .  S
C469        C470   1.407       .  A
C469        C474   1.386       .  A
C469        F476   1.352       .  S
C470        C471   1.406       .  A
C471        C472   1.410       .  A
C471        F478   1.357       .  S
C472        C473   1.410       .  A
C472        F477   1.356       .  S
C473        C474   1.398       .  A
C474        F475   1.357       .  S
C479        C480   1.398       .  A
C479        C484   1.398       .  A
C479        F486   1.358       .  S
C480        C481   1.404       .  A
C481        C482   1.398       .  A
C481        F488   1.358       .  S
C482        C483   1.404       .  A
C482        F487   1.356       .  S
C483        C484   1.408       .  A
C484        F485   1.356       .  S
C489        C490   1.406       .  A
C489        C494   1.387       .  A
C489        F496   1.354       .  S
C490        C491   1.403       .  A
C491        C492   1.406       .  A
C491        F498   1.357       .  S
C492        C493   1.409       .  A
C492        F497   1.356       .  S
C493        C494   1.398       .  A
C494        F495   1.358       .  S
C499        C500   1.405       .  A
C499        C504   1.397       .  A
C499        F506   1.355       .  S
C500        C501   1.409       .  A
C501        C502   1.398       .  A
C501        F508   1.357       .  S
C502        C503   1.399       .  A
C502        F507   1.358       .  S
C503        C504   1.403       .  A
C504        F505   1.358       .  S
C509        C510   1.409       .  A
C509        C514   1.411       .  A
C509       F1064   1.357   1_545  S
C510        C550   1.491       .  S
C510        C511   1.398       .  A
C511        C512   1.387       .  A
C511        F518   1.358       .  S
C512        C513   1.414       .  A
C512        F517   1.354       .  S
C513        C514   1.411       .  A
C514        F515   1.357   1_545  S
F516       C1057   1.357       .  S
C519        C520   1.405   1_565  A
C519        C524   1.403       .  A
C519       F1074   1.357       .  S
C520        C521   1.415       .  A
C521        C522   1.395       .  A
C521        F528   1.353       .  S
C522        C523   1.396       .  A
C522        F527   1.358       .  S
C523        C524   1.410   1_545  A
C524       F1073   1.357       .  S
F525       C1072   1.357       .  S
F526       C1067   1.357       .  S
C529        C530   1.411       .  A
C529        C534   1.410       .  A
C529       F1084   1.357       .  S
C530        C531   1.416       .  A
C531        C532   1.386       .  A
C531        F538   1.354       .  S
C532        C533   1.396       .  A
C532        F537   1.358       .  S
C533        C534   1.409       .  A
C534       F1083   1.357       .  S
F535       C1082   1.357   1_545  S
F536       C1077   1.357   1_545  S
C539        C540   1.415       .  A
C539        C544   1.397       .  A
C539        F546   1.352       .  S
C540        C541   1.405       .  A
C541        C542   1.403       .  A
C541        F548   1.357       .  S
C542        C543   1.409       .  A
C542        F547   1.357       .  S
C543        C549   1.486       .  S
C543        C544   1.396       .  A
C544        F545   1.357       .  S
C549       C1071   1.484       .  S
C549       C1098   1.356       .  D
C550       C1081   1.488   1_545  S
C550       C1097   1.356   1_445  D
C551       C1031   1.487       .  S
C551       C1048   1.488       .  S
C551       C1648   1.352       .  D
C552       C1021   1.484       .  S
C552       C1041   1.482       .  S
C552       C1647   1.352   1_455  D
C553        N571   1.361       .  A
C553        C590   1.453       .  S
C553       C1088   1.490       .  S
N554        N571   1.332       .  A
N554        N576   1.318       .  A
N554       Co591   2.122       .  S
C555        N580   1.351       .  A
C555        C593   1.467       .  S
C555        H600   1.081       .  S
H556        C597   1.081       .  S
C557        N581   1.338       .  A
C557        C561   1.465       .  S
C557        H586   1.082       .  S
Co558       N576   2.056       .  S
Co558       N566   2.054       .  S
Co558       N598   2.048       .  S
Co558       N574   2.066       .  S
Co558      Cl602   2.434       .  S
N559        C597   1.348       .  A
N559        N566   1.316       .  A
N559       Co560   2.088       .  S
Co560       N563   2.071       .  S
Co560       N580   2.092       .  S
Co560       N567   2.072       .  S
Co560      Cl602   2.459       .  S
C561        N599   1.347       .  A
C561       C1011   1.469       .  S
N562        N569   1.320       .  A
N562        N592   1.323       .  A
N562       Co595   2.090       .  S
N563        N581   1.319       .  A
N563        N599   1.322       .  A
N564        C593   1.341       .  A
N564        N574   1.315       .  A
H565        C590   1.080       .  S
N566        N587   1.317       .  A
N567        N585   1.319       .  A
N567        N572   1.322       .  A
C568        N572   1.347       .  A
C568        C596   1.465       .  S
C568        C988   1.472       .  S
N569        C584   1.338       .  A
N569       Co591   2.075       .  S
C570        N598   1.323       .  A
C570        C573   1.450       .  S
C570        H604   1.077       .  S
C573        N594   1.365       .  A
C573       C1078   1.494       .  S
N574        N580   1.317       .  A
N575        C601   1.346       .  A
N575        N577   1.323       .  A
N575       Co591   2.099       .  S
N576        C590   1.332       .  A
N577        N605   1.321       .  A
N577       Co595   2.088       .  S
H578        C601   1.081   1_545  S
H579        C596   1.082       .  S
N581       Co595   2.086       .  S
N582        N594   1.335       .  A
N582        N598   1.315       .  A
N582       Co591   2.117       .  S
C583        N587   1.341       .  A
C583        C597   1.462       .  S
C583       C1051   1.462       .  S
C584        C603   1.458       .  S
C584        H588   1.082   1_565  S
N585        C596   1.343       .  A
N585       Co595   2.096       .  S
C589        N605   1.349       .  A
C589        C601   1.466       .  S
C589        C978   1.482   1_565  S
Co591      Cl602   2.467       .  S
N592        C603   1.350       .  A
C593       C1038   1.475       .  S
Co595      Cl602   2.428       .  S
C603        C998   1.465   1_565  S
C606        N624   1.361       .  A
C606        C643   1.450       .  S
C606       C1068   1.488       .  S
N607        N624   1.333       .  A
N607        N629   1.317       .  A
N607       Co644   2.120       .  S
C608        N633   1.353       .  A
C608        C646   1.471       .  S
C608        H653   1.081       .  S
H609        C650   1.081       .  S
C610        N634   1.338       .  A
C610        C614   1.464       .  S
C610        H639   1.082       .  S
Co611       N629   2.050       .  S
Co611       N619   2.058       .  S
Co611       N651   2.055       .  S
Co611       N627   2.067       .  S
Co611      Cl655   2.437       .  S
N612        C650   1.348       .  A
N612        N619   1.317       .  A
N612       Co613   2.090       .  S
Co613       N616   2.074       .  S
Co613       N633   2.100       .  S
Co613       N620   2.078       .  S
Co613      Cl655   2.465       .  S
C614        N652   1.348       .  A
C614        C968   1.470       .  S
N615        N622   1.321       .  A
N615        N645   1.324       .  A
N615       Co648   2.094       .  S
N616        N634   1.319       .  A
N616        N652   1.322       .  A
N617        C646   1.343       .  A
N617        N627   1.316       .  A
H618        C643   1.080       .  S
N619        N640   1.318       .  A
N620        N638   1.321       .  A
N620        N625   1.323       .  A
C621        N625   1.349       .  A
C621        C649   1.464       .  S
C621        C948   1.475       .  S
N622        C637   1.338       .  A
N622       Co644   2.072       .  S
C623        N651   1.325       .  A
C623        C626   1.454       .  S
C623        H657   1.077       .  S
C626        N647   1.363       .  A
C626       C1061   1.495       .  S
N627        N633   1.317       .  A
N628        C654   1.346       .  A
N628        N630   1.323       .  A
N628       Co644   2.098       .  S
N629        C643   1.330       .  A
N630        N658   1.321       .  A
N630       Co648   2.089       .  S
H631        C654   1.082       .  S
H632        C649   1.082       .  S
N634       Co648   2.086       .  S
N635        N647   1.334       .  A
N635        N651   1.316       .  A
N635       Co644   2.113       .  S
C636        N640   1.342       .  A
C636        C650   1.461       .  S
C636       C1028   1.465       .  S
C637        C656   1.457       .  S
C637        H641   1.082       .  S
N638        C649   1.343       .  A
N638       Co648   2.098       .  S
C642        N658   1.349       .  A
C642        C654   1.466       .  S
C642        C938   1.482       .  S
Co644      Cl655   2.465       .  S
N645        C656   1.351       .  A
C646       C1018   1.482       .  S
Co648      Cl655   2.425       .  S
C656        C958   1.465       .  S
C659        C928   1.496   1_554  S
C659        C660   1.362       .  D
C660        C921   1.487   1_554  S
C661        C871   1.487       .  S
C661        C891   1.488   1_554  S
C661        C662   1.358       .  D
C662        C861   1.490       .  S
C662        C878   1.489   1_554  S
C663        N681   1.353       .  A
C663        C700   1.447       .  S
C663        C931   1.466       .  S
N664        N681   1.331       .  A
N664        N686   1.318       .  A
N664       Co701   2.099       .  S
C665        N690   1.351       .  A
C665        C703   1.475       .  S
C665        H710   1.081       .  S
H666        C707   1.082       .  S
C667        N691   1.336       .  A
C667        C671   1.462       .  S
C667        H696   1.081       .  S
Co668       N686   2.055       .  S
Co668       N676   2.072       .  S
Co668      N1804   2.064       .  S
Co668      N1780   2.071       .  S
Co668      Cl712   2.442       .  S
N669        C707   1.348       .  A
N669        N676   1.318       .  A
N669       Co670   2.103       .  S
Co670       N673   2.078       .  S
Co670      N1786   2.100       .  S
Co670      N1773   2.086       .  S
Co670      Cl712   2.463       .  S
C671        N709   1.349       .  A
C671        C851   1.472       .  S
N672        N679   1.319       .  A
N672        N702   1.324       .  A
N672       Co705   2.090       .  S
N673        N691   1.320       .  A
N673        N709   1.324       .  A
N674        C703   1.345       .  A
N674        N684   1.318       .  A
H675        C700   1.080       .  S
N676        N697   1.322       .  A
N677        N695   1.322       .  A
N677        N682   1.325       .  A
N677      Co1766   2.086   1_455  S
C678        N682   1.350       .  A
C678        C706   1.460       .  S
C678        C831   1.473       .  S
N679        C694   1.336       .  A
N679       Co701   2.068       .  S
C680        N708   1.329       .  A
C680        C683   1.449       .  S
C680        H714   1.078       .  S
C683        N704   1.354       .  A
C683        C918   1.473       .  S
N684        N690   1.317       .  A
N684      Co1764   2.071   1_455  S
N685        C711   1.343       .  A
N685        N687   1.321       .  A
N685      Co1797   2.085   1_455  S
N686        C700   1.331       .  A
N687        N715   1.324       .  A
N687      Co1801   2.094   1_455  S
H688        C711   1.082       .  S
H689        C706   1.081       .  S
N690      Co1766   2.100   1_455  S
N691       Co705   2.086       .  S
N692        N704   1.331       .  A
N692        N708   1.319       .  A
N692      Co1797   2.093   1_455  S
C693        N697   1.346       .  A
C693        C707   1.469       .  S
C693        C888   1.485       .  S
C694        C713   1.456       .  S
C694        H698   1.082       .  S
N695        C706   1.340       .  A
N695      Co1801   2.092   1_455  S
C699        N715   1.353       .  A
C699        C711   1.462       .  S
C699        C821   1.485       .  S
Co701      N1781   2.085       .  S
Co701      N1788   2.093       .  S
Co701      Cl712   2.459       .  S
N702        C713   1.352       .  A
C703        C881   1.492       .  S
Co705      N1783   2.094       .  S
Co705      N1791   2.092       .  S
Co705      Cl712   2.430       .  S
N708      Co1764   2.064   1_455  S
C713        C838   1.464       .  S
C716        C818   1.500       .  S
C716        C941   1.495       .  S
C716        C717   1.370       .  D
C717        C828   1.492       .  S
C717        C951   1.495       .  S
C718        C848   1.484       .  S
C718        C971   1.485       .  S
C718        C719   1.360       .  D
C719        C841   1.483       .  S
C719        C961   1.485       .  S
C720        C811   1.487       .  S
C720        C991   1.488       .  S
C720        C721   1.365       .  D
C721        C798   1.496       .  S
C721        C981   1.493       .  S
C722        C791   1.484       .  S
C722       C1008   1.485       .  S
C722        C723   1.360       .  D
C723        C781   1.483       .  S
C723       C1001   1.483       .  S
C724        N742   1.352       .  A
C724        C761   1.448       .  S
C724        C911   1.466       .  S
N725        N742   1.330       .  A
N725        N747   1.319       .  A
N725       Co762   2.099       .  S
C726        N751   1.351       .  A
C726        C764   1.475       .  S
C726        H771   1.081       .  S
H727        C768   1.082       .  S
C728        N752   1.336       .  A
C728        C732   1.463       .  S
C728        H757   1.081       .  S
Co729       N747   2.057       .  S
Co729       N737   2.076       .  S
Co729      N1865   2.064       .  S
Co729      N1841   2.073       .  S
Co729      Cl773   2.440       .  S
N730        C768   1.346       .  A
N730        N737   1.318       .  A
N730       Co731   2.097       .  S
Co731       N734   2.077       .  S
Co731      N1847   2.099       .  S
Co731      N1834   2.081       .  S
Co731      Cl773   2.463       .  S
C732        N770   1.349       .  A
C732        C788   1.471       .  S
N733        N740   1.319       .  A
N733        N763   1.324       .  A
N733       Co766   2.090       .  S
N734        N752   1.320       .  A
N734        N770   1.323       .  A
N735        C764   1.345       .  A
N735        N745   1.318       .  A
H736        C761   1.080       .  S
N737        N758   1.323       .  A
N738        N756   1.322       .  A
N738        N743   1.324       .  A
N738      Co1827   2.081   1_455  S
C739        N743   1.349       .  A
C739        C767   1.461       .  S
C739        C808   1.470       .  S
N740        C755   1.336   1_565  A
N740       Co762   2.070       .  S
C741        N769   1.329       .  A
C741        C744   1.449       .  S
C741        H775   1.078       .  S
C744        N765   1.355       .  A
C744        C901   1.474       .  S
N745        N751   1.317       .  A
N745      Co1825   2.073   1_455  S
N746        C772   1.343       .  A
N746        N748   1.321       .  A
N746      Co1858   2.086   1_455  S
N747        C761   1.332       .  A
N748        N776   1.324       .  A
N748      Co1862   2.092   1_455  S
H749        C772   1.082   1_545  S
H750        C767   1.081       .  S
N751      Co1827   2.099   1_455  S
N752       Co766   2.083       .  S
N753        N765   1.331       .  A
N753        N769   1.319       .  A
N753      Co1858   2.095   1_455  S
C754        N758   1.348       .  A
C754        C768   1.466       .  S
C754        C868   1.483       .  S
C755        C774   1.457   1_545  S
C755        H759   1.082       .  S
N756        C767   1.341       .  A
N756      Co1862   2.093   1_455  S
C760        N776   1.352       .  A
C760        C772   1.462       .  S
C760        C801   1.483   1_565  S
Co762      N1842   2.086       .  S
Co762      N1849   2.095       .  S
Co762      Cl773   2.458       .  S
N763        C774   1.351       .  A
C764        C858   1.493       .  S
Co766      N1844   2.092       .  S
Co766      N1852   2.093       .  S
Co766      Cl773   2.432       .  S
N769      Co1825   2.064   1_455  S
C774        C778   1.465   1_565  S
C777        C782   1.397       .  A
C777        F784   1.358       .  S
C778        C779   1.399       .  A
C779        F786   1.358   1_545  S
C780        C781   1.408       .  A
C780        F785   1.358       .  S
C781        C782   1.404       .  A
C782        F783   1.358       .  S
C787        C788   1.405       .  A
C787        C792   1.403       .  A
C787        F794   1.357       .  S
C788        C789   1.406       .  A
C789        C790   1.389       .  A
C789        F796   1.358       .  S
C790        C791   1.403       .  A
C790        F795   1.358       .  S
C791        C792   1.407       .  A
C792        F793   1.357       .  S
C797        C798   1.409       .  A
C797        C802   1.405       .  A
C797        F804   1.357       .  S
C798        C799   1.405       .  A
C799        F806   1.358       .  S
C800        C801   1.408       .  A
C800        F805   1.358   1_545  S
C802        F803   1.357       .  S
C807        C808   1.399       .  A
C807        C812   1.398       .  A
C807        F814   1.358       .  S
C808        C809   1.407       .  A
C809        C810   1.401       .  A
C809        F816   1.357       .  S
C810        C811   1.405       .  A
C810        F815   1.358       .  S
C811        C812   1.408       .  A
C812        F813   1.357       .  S
C817        C818   1.407       .  A
C817        F824   1.358       .  S
C818        C819   1.410       .  A
C819        C820   1.407       .  A
C819        F826   1.357       .  S
C820        F825   1.357       .  S
C821        C822   1.407       .  A
C822        F823   1.358       .  S
C827        C828   1.409       .  A
C827        C832   1.398       .  A
C827        F834   1.358       .  S
C828        C829   1.407       .  A
C829        C830   1.402       .  A
C829        F836   1.358       .  S
C830        C831   1.408       .  A
C830        F835   1.358       .  S
C831        C832   1.400       .  A
C832        F833   1.358       .  S
C837        C838   1.406       .  A
C837        F844   1.358       .  S
C839        C840   1.397       .  A
C840        C841   1.408       .  A
C840        F845   1.358       .  S
C841        C842   1.404       .  A
C842        F843   1.358       .  S
C847        C848   1.403       .  A
C847        C852   1.391       .  A
C847        F854   1.358       .  S
C848        C849   1.407       .  A
C849        C850   1.403       .  A
C849        F856   1.357       .  S
C850        C851   1.405       .  A
C850        F855   1.357       .  S
C851        C852   1.406       .  A
C852        F853   1.358       .  S
C857        C858   1.412       .  A
C857        C862   1.409       .  A
C857        F864   1.356       .  S
C858        C859   1.413       .  A
C859        C860   1.390       .  A
C859        F866   1.358       .  S
C860        C861   1.400       .  A
C860        F865   1.357   1_554  S
C861        C862   1.408       .  A
C862        F863   1.357       .  S
C867        C868   1.409       .  A
C867        C872   1.399       .  A
C867        F874   1.355       .  S
C868        C869   1.405       .  A
C869        C870   1.401       .  A
C869        F876   1.357       .  S
C870        C871   1.409       .  A
C870        F875   1.357       .  S
C871        C872   1.401       .  A
C872        F873   1.357       .  S
C877        C878   1.408       .  A
C877        C882   1.408       .  A
C877        F884   1.357       .  S
C878        C879   1.400       .  A
C879        C880   1.390       .  A
C879        F886   1.357   1_556  S
C880        C881   1.413       .  A
C880        F885   1.358       .  S
C881        C882   1.411       .  A
C882        F883   1.356       .  S
C887        C888   1.405       .  A
C887        C892   1.402       .  A
C887        F894   1.357       .  S
C888        C889   1.411       .  A
C889        C890   1.400       .  A
C889        F896   1.355       .  S
C890        C891   1.401       .  A
C890        F895   1.357       .  S
C891        C892   1.409       .  A
C892        F893   1.357       .  S
C897        C898   1.411   1_545  A
C897        C902   1.406       .  A
C898        C899   1.403       .  A
C899        C900   1.388       .  A
C899        F906   1.357       .  S
C900        C901   1.403       .  A
C900        F905   1.356       .  S
C901        C902   1.403   1_565  A
C907        C908   1.412       .  A
C907        C912   1.401       .  A
C908        C909   1.408   1_545  A
C909        C910   1.395       .  A
C909        F916   1.350       .  S
C910        C911   1.400       .  A
C910        F915   1.358       .  S
C911        C912   1.400   1_565  A
C917        C918   1.402       .  A
C917        C922   1.406       .  A
C918        C919   1.403       .  A
C919        C920   1.388       .  A
C919        F926   1.356       .  S
C920        C921   1.403       .  A
C920        F925   1.357       .  S
C921        C922   1.411       .  A
C927        C928   1.411       .  A
C927        C932   1.401       .  A
C928        C929   1.407       .  A
C929        C930   1.395       .  A
C929        F936   1.350       .  S
C930        C931   1.401       .  A
C930        F935   1.358       .  S
C931        C932   1.400       .  A
C932        F933   1.357       .  S
C937        C942   1.407       .  A
C939        C940   1.395       .  A
C940        C941   1.404       .  A
C940        F945   1.358       .  S
C941        C942   1.410       .  A
C942        F943   1.357       .  S
C947        C948   1.400       .  A
C947        C952   1.400       .  A
C947        F954   1.358       .  S
C948        C949   1.408       .  A
C949        C950   1.402       .  A
C949        F956   1.358       .  S
C950        C951   1.407       .  A
C950        F955   1.358       .  S
C951        C952   1.410       .  A
C952        F953   1.358       .  S
C957        C958   1.398       .  A
C957        F964   1.358       .  S
C959        C960   1.398       .  A
C959        F966   1.358       .  S
C960        C961   1.405       .  A
C960        F965   1.358       .  S
C961        C962   1.408       .  A
C962        F963   1.358       .  S
C967        C968   1.405       .  A
C967        C972   1.391       .  A
C967        F974   1.358       .  S
C968        C969   1.405       .  A
C969        C970   1.402       .  A
C969        F976   1.358       .  S
C970        C971   1.407       .  A
C970        F975   1.357       .  S
C971        C972   1.404       .  A
C972        F973   1.358       .  S
C977        C982   1.407       .  A
C977        F984   1.357       .  S
C978        C979   1.408       .  A
C979        F986   1.358   1_545  S
C980        C981   1.404       .  A
C980        F985   1.358       .  S
C981        C982   1.409       .  A
C982        F983   1.357       .  S
C987        C988   1.407       .  A
C987        C992   1.400       .  A
C987        F994   1.357       .  S
C988        C989   1.400       .  A
C989        C990   1.400       .  A
C989        F996   1.358       .  S
C990        C991   1.409       .  A
C990        F995   1.357       .  S
C991        C992   1.405       .  A
C992        F993   1.358       .  S
C997        C998   1.407       .  A
C997       F1004   1.358       .  S
C999       C1000   1.396       .  A
C999       F1006   1.358       .  S
C1000      C1001   1.408       .  A
C1000      F1005   1.358       .  S
C1001      C1002   1.404       .  A
C1002      F1003   1.358       .  S
C1007      C1008   1.407       .  A
C1007      C1012   1.401       .  A
C1007      F1014   1.357       .  S
C1008      C1009   1.405       .  A
C1009      C1010   1.390       .  A
C1009      F1016   1.358       .  S
C1010      C1011   1.405       .  A
C1010      F1015   1.358       .  S
C1011      C1012   1.404       .  A
C1012      F1013   1.358       .  S
C1017      C1018   1.407       .  A
C1017      C1022   1.386       .  A
C1017      F1024   1.352       .  S
C1018      C1019   1.406       .  A
C1019      C1020   1.410       .  A
C1019      F1026   1.357       .  S
C1020      C1021   1.410       .  A
C1020      F1025   1.356       .  S
C1021      C1022   1.398       .  A
C1022      F1023   1.357       .  S
C1027      C1028   1.398       .  A
C1027      C1032   1.398       .  A
C1027      F1034   1.358       .  S
C1028      C1029   1.404       .  A
C1029      C1030   1.398       .  A
C1029      F1036   1.358       .  S
C1030      C1031   1.404       .  A
C1030      F1035   1.356       .  S
C1031      C1032   1.408       .  A
C1032      F1033   1.356       .  S
C1037      C1038   1.406       .  A
C1037      C1042   1.387       .  A
C1037      F1044   1.354       .  S
C1038      C1039   1.403       .  A
C1039      C1040   1.406       .  A
C1039      F1046   1.357       .  S
C1040      C1041   1.409       .  A
C1040      F1045   1.356       .  S
C1041      C1042   1.398       .  A
C1042      F1043   1.358       .  S
C1047      C1048   1.405       .  A
C1047      C1052   1.397       .  A
C1047      F1054   1.355       .  S
C1048      C1049   1.409       .  A
C1049      C1050   1.398       .  A
C1049      F1056   1.357       .  S
C1050      C1051   1.399       .  A
C1050      F1055   1.358       .  S
C1051      C1052   1.403       .  A
C1052      F1053   1.358       .  S
C1057      C1058   1.409       .  A
C1057      C1062   1.411       .  A
C1058      C1059   1.398       .  A
C1059      C1060   1.387       .  A
C1059      F1066   1.358       .  S
C1060      C1061   1.414       .  A
C1060      F1065   1.354       .  S
C1061      C1062   1.411       .  A
C1062      F1063   1.357       .  S
C1067      C1068   1.405       .  A
C1067      C1072   1.403       .  A
C1068      C1069   1.415       .  A
C1069      C1070   1.395       .  A
C1069      F1076   1.353       .  S
C1070      C1071   1.396       .  A
C1070      F1075   1.358       .  S
C1071      C1072   1.410       .  A
C1077      C1078   1.411       .  A
C1077      C1082   1.410       .  A
C1078      C1079   1.416       .  A
C1079      C1080   1.386       .  A
C1079      F1086   1.354       .  S
C1080      C1081   1.396       .  A
C1080      F1085   1.358       .  S
C1081      C1082   1.409       .  A
C1087      C1088   1.415       .  A
C1087      C1092   1.397       .  A
C1087      F1094   1.352       .  S
C1088      C1089   1.405       .  A
C1089      C1090   1.403   1_565  A
C1089      F1096   1.357   1_565  S
C1090      C1091   1.409   1_545  A
C1090      F1095   1.357       .  S
C1091      C1092   1.396       .  A
C1092      F1093   1.357       .  S
C1097      C1619   1.484   1_565  S
C1097      C2187   1.486       .  S
C1098      C2154   1.491       .  S
C1098      C1629   1.488       .  S
C1099      C1579   1.487       .  S
C1099      C1596   1.488       .  S
C1100      C1569   1.484       .  S
C1100      C1589   1.482       .  S
C1101      N1119   1.361       .  A
C1101      C1138   1.453       .  S
C1101      C1636   1.490       .  S
N1102      N1119   1.332       .  A
N1102      N1124   1.318       .  A
N1102     Co1139   2.122       .  S
C1103      N1128   1.351       .  A
C1103      C1141   1.467       .  S
C1103      H1148   1.081       .  S
H1104      C1145   1.081       .  S
C1105      N1129   1.338       .  A
C1105      C1109   1.465       .  S
C1105      H1134   1.082       .  S
Co1106     N1124   2.056       .  S
Co1106     N1114   2.054       .  S
Co1106     N1146   2.048       .  S
Co1106     N1122   2.066       .  S
Co1106    Cl1150   2.434       .  S
N1107      C1145   1.348       .  A
N1107      N1114   1.316       .  A
N1107     Co1108   2.088       .  S
Co1108     N1111   2.071       .  S
Co1108     N1128   2.092       .  S
Co1108     N1115   2.072       .  S
Co1108    Cl1150   2.459       .  S
C1109      N1147   1.347       .  A
C1109      C1559   1.469       .  S
N1110      N1117   1.320       .  A
N1110      N1140   1.323       .  A
N1110     Co1143   2.090       .  S
N1111      N1129   1.319       .  A
N1111      N1147   1.322       .  A
N1112      C1141   1.341       .  A
N1112      N1122   1.315       .  A
H1113      C1138   1.080       .  S
N1114      N1135   1.317       .  A
N1115      N1133   1.319       .  A
N1115      N1120   1.322       .  A
C1116      N1120   1.347       .  A
C1116      C1144   1.465       .  S
C1116      C1536   1.472       .  S
N1117      C1132   1.338       .  A
N1117     Co1139   2.075       .  S
C1118      N1146   1.323       .  A
C1118      C1121   1.450       .  S
C1118      H1152   1.077       .  S
C1121      N1142   1.365       .  A
C1121      C1626   1.494       .  S
N1122      N1128   1.317       .  A
N1123      C1149   1.346       .  A
N1123      N1125   1.323       .  A
N1123     Co1139   2.099       .  S
N1124      C1138   1.332       .  A
N1125      N1153   1.321       .  A
N1125     Co1143   2.088       .  S
H1126      C1149   1.081       .  S
H1127      C1144   1.082       .  S
N1129     Co1143   2.086       .  S
N1130      N1142   1.335       .  A
N1130      N1146   1.315       .  A
N1130     Co1139   2.117       .  S
C1131      N1135   1.341       .  A
C1131      C1145   1.462       .  S
C1131      C1599   1.462       .  S
C1132      C1151   1.458       .  S
C1132      H1136   1.082       .  S
N1133      C1144   1.343       .  A
N1133     Co1143   2.096       .  S
C1137      N1153   1.349       .  A
C1137      C1149   1.466       .  S
C1137      C1526   1.482       .  S
Co1139    Cl1150   2.467       .  S
N1140      C1151   1.350       .  A
C1141      C1586   1.475       .  S
Co1143    Cl1150   2.428       .  S
C1151      C1546   1.465       .  S
C1154      N1172   1.361       .  A
C1154      C1191   1.450       .  S
C1154      C1616   1.488       .  S
N1155      N1172   1.333       .  A
N1155      N1177   1.317       .  A
N1155     Co1192   2.120       .  S
C1156      N1181   1.353       .  A
C1156      C1194   1.471       .  S
C1156      H1201   1.081       .  S
H1157      C1198   1.081       .  S
C1158      N1182   1.338       .  A
C1158      C1162   1.464       .  S
C1158      H1187   1.082       .  S
Co1159     N1177   2.050       .  S
Co1159     N1167   2.058       .  S
Co1159     N1199   2.055       .  S
Co1159     N1175   2.067       .  S
Co1159    Cl1203   2.437       .  S
N1160      C1198   1.348       .  A
N1160      N1167   1.317       .  A
N1160     Co1161   2.090       .  S
Co1161     N1164   2.074       .  S
Co1161     N1181   2.100       .  S
Co1161     N1168   2.078       .  S
Co1161    Cl1203   2.465       .  S
C1162      N1200   1.348       .  A
C1162      C1516   1.470       .  S
N1163      N1170   1.321       .  A
N1163      N1193   1.324       .  A
N1163     Co1196   2.094       .  S
N1164      N1182   1.319       .  A
N1164      N1200   1.322       .  A
N1165      C1194   1.343       .  A
N1165      N1175   1.316       .  A
H1166      C1191   1.080       .  S
N1167      N1188   1.318       .  A
N1168      N1186   1.321       .  A
N1168      N1173   1.323       .  A
C1169      N1173   1.349       .  A
C1169      C1197   1.464       .  S
C1169      C1496   1.475       .  S
N1170      C1185   1.338       .  A
N1170     Co1192   2.072       .  S
C1171      N1199   1.325       .  A
C1171      C1174   1.454       .  S
C1171      H1205   1.077       .  S
C1174      N1195   1.363       .  A
C1174      C1609   1.495       .  S
N1175      N1181   1.317       .  A
N1176      C1202   1.346       .  A
N1176      N1178   1.323       .  A
N1176     Co1192   2.098       .  S
N1177      C1191   1.330       .  A
N1178      N1206   1.321       .  A
N1178     Co1196   2.089       .  S
H1179      C1202   1.082   1_565  S
H1180      C1197   1.082       .  S
N1182     Co1196   2.086       .  S
N1183      N1195   1.334       .  A
N1183      N1199   1.316       .  A
N1183     Co1192   2.113       .  S
C1184      N1188   1.342       .  A
C1184      C1198   1.461       .  S
C1184      C1576   1.465       .  S
C1185      C1204   1.457       .  S
C1185      H1189   1.082   1_545  S
N1186      C1197   1.343       .  A
N1186     Co1196   2.098       .  S
C1190      N1206   1.349       .  A
C1190      C1202   1.466       .  S
C1190      C1486   1.482   1_545  S
Co1192    Cl1203   2.465       .  S
N1193      C1204   1.351       .  A
C1194      C1566   1.482       .  S
Co1196    Cl1203   2.425       .  S
C1204      C1506   1.465   1_545  S
C1207      C2004   1.496       .  S
C1207      C1476   1.496   1_544  S
C1207      C1208   1.362       .  D
C1208      C1994   1.487   1_545  S
C1208      C1469   1.487   1_554  S
C1209      C1419   1.487       .  S
C1209      C1439   1.488   1_554  S
C1209      C1210   1.358       .  D
C1210      C1409   1.490       .  S
C1210      C1426   1.489   1_554  S
C1211      N1229   1.353       .  A
C1211      C1248   1.447       .  S
C1211      C1479   1.466       .  S
N1212      N1229   1.331       .  A
N1212      N1234   1.318       .  A
N1212     Co1249   2.099       .  S
C1213      N1238   1.351       .  A
C1213      C1251   1.475       .  S
C1213      H1258   1.081       .  S
H1214      C1255   1.082       .  S
C1215      N1239   1.336       .  A
C1215      C1219   1.462       .  S
C1215      H1244   1.081       .  S
Co1216     N1234   2.055       .  S
Co1216     N1224   2.072       .  S
Co1216    Cl1260   2.442       .  S
N1217      C1255   1.348       .  A
N1217      N1224   1.318       .  A
N1217     Co1218   2.103       .  S
Co1218     N1221   2.078       .  S
Co1218    Cl1260   2.463       .  S
C1219      N1257   1.349       .  A
C1219      C1399   1.472       .  S
N1220      N1227   1.319       .  A
N1220      N1250   1.324       .  A
N1220     Co1253   2.090       .  S
N1221      N1239   1.320       .  A
N1221      N1257   1.324       .  A
N1222      C1251   1.345       .  A
N1222      N1232   1.318       .  A
H1223      C1248   1.080       .  S
N1224      N1245   1.322       .  A
N1225      N1243   1.322       .  A
N1225      N1230   1.325       .  A
C1226      N1230   1.350       .  A
C1226      C1254   1.460       .  S
C1226      C1379   1.473       .  S
N1227      C1242   1.336       .  A
N1227     Co1249   2.068       .  S
C1228      N1256   1.329       .  A
C1228      C1231   1.449       .  S
C1228      H1262   1.078       .  S
C1231      N1252   1.354       .  A
C1231      C1466   1.473       .  S
N1232      N1238   1.317       .  A
N1233      C1259   1.343       .  A
N1233      N1235   1.321       .  A
N1234      C1248   1.331       .  A
N1235      N1263   1.324       .  A
H1236      C1259   1.082   1_565  S
H1237      C1254   1.081       .  S
N1239     Co1253   2.086       .  S
N1240      N1252   1.331       .  A
N1240      N1256   1.319       .  A
C1241      N1245   1.346       .  A
C1241      C1255   1.469       .  S
C1241      C1436   1.485       .  S
C1242      C1261   1.456       .  S
C1242      H1246   1.082   1_545  S
N1243      C1254   1.340       .  A
C1247      N1263   1.353       .  A
C1247      C1259   1.462       .  S
C1247      C1369   1.485   1_545  S
Co1249    Cl1260   2.459       .  S
N1250      C1261   1.352       .  A
C1251      C1429   1.492       .  S
Co1253    Cl1260   2.430       .  S
C1261      C1386   1.464   1_545  S
C1264      C1366   1.500       .  S
C1264      C1489   1.495       .  S
C1264      C1265   1.370       .  D
C1265      C1376   1.492       .  S
C1265      C1499   1.495       .  S
C1266      C1396   1.484       .  S
C1266      C1519   1.485       .  S
C1266      C1267   1.360       .  D
C1267      C1389   1.483       .  S
C1267      C1509   1.485       .  S
C1268      C1359   1.487       .  S
C1268      C1539   1.488       .  S
C1268      C1269   1.365       .  D
C1269      C1346   1.496       .  S
C1269      C1529   1.493       .  S
C1270      C1339   1.484       .  S
C1270      C1556   1.485       .  S
C1270      C1271   1.360       .  D
C1271      C1329   1.483       .  S
C1271      C1549   1.483       .  S
C1272      N1290   1.352       .  A
C1272      C1309   1.448       .  S
C1272      C1459   1.466       .  S
N1273      N1290   1.330       .  A
N1273      N1295   1.319       .  A
N1273     Co1310   2.099       .  S
C1274      N1299   1.351       .  A
C1274      C1312   1.475       .  S
C1274      H1319   1.081       .  S
H1275      C1316   1.082       .  S
C1276      N1300   1.336       .  A
C1276      C1280   1.463       .  S
C1276      H1305   1.081       .  S
Co1277     N1295   2.057       .  S
Co1277     N1285   2.076       .  S
Co1277    Cl1321   2.440       .  S
N1278      C1316   1.346       .  A
N1278      N1285   1.318       .  A
N1278     Co1279   2.097       .  S
Co1279     N1282   2.077       .  S
Co1279    Cl1321   2.463       .  S
C1280      N1318   1.349       .  A
C1280      C1336   1.471       .  S
N1281      N1288   1.319       .  A
N1281      N1311   1.324       .  A
N1281     Co1314   2.090       .  S
N1282      N1300   1.320       .  A
N1282      N1318   1.323       .  A
N1283      C1312   1.345       .  A
N1283      N1293   1.318       .  A
H1284      C1309   1.080       .  S
N1285      N1306   1.323       .  A
N1286      N1304   1.322       .  A
N1286      N1291   1.324       .  A
C1287      N1291   1.349       .  A
C1287      C1315   1.461       .  S
C1287      C1356   1.470       .  S
N1288      C1303   1.336       .  A
N1288     Co1310   2.070       .  S
C1289      N1317   1.329       .  A
C1289      C1292   1.449       .  S
C1289      H1323   1.078       .  S
C1292      N1313   1.355       .  A
C1292      C1449   1.474       .  S
N1293      N1299   1.317       .  A
N1294      C1320   1.343       .  A
N1294      N1296   1.321       .  A
N1295      C1309   1.332       .  A
N1296      N1324   1.324       .  A
H1297      C1320   1.082       .  S
H1298      C1315   1.081       .  S
N1300     Co1314   2.083       .  S
N1301      N1313   1.331       .  A
N1301      N1317   1.319       .  A
C1302      N1306   1.348       .  A
C1302      C1316   1.466       .  S
C1302      C1416   1.483       .  S
C1303      C1322   1.457       .  S
C1303      H1307   1.082       .  S
N1304      C1315   1.341       .  A
C1308      N1324   1.352       .  A
C1308      C1320   1.462       .  S
C1308      C1349   1.483       .  S
Co1310    Cl1321   2.458       .  S
N1311      C1322   1.351       .  A
C1312      C1406   1.493       .  S
Co1314    Cl1321   2.432       .  S
C1322      C1326   1.465       .  S
C1325      C1874   1.406       .  A
C1325      C1330   1.397       .  A
C1325      F1332   1.358       .  S
C1326      C1873   1.406       .  A
C1326      C1327   1.399       .  A
C1327      C1876   1.397       .  A
C1327      F1334   1.358       .  S
C1328      C1875   1.397       .  A
C1328      C1329   1.408       .  A
C1328      F1333   1.358       .  S
C1329      C1330   1.404       .  A
C1330      F1331   1.358       .  S
C1335      C1336   1.405       .  A
C1335      C1340   1.403       .  A
C1335      F1342   1.357       .  S
C1336      C1337   1.406       .  A
C1337      C1338   1.389       .  A
C1337      F1344   1.358       .  S
C1338      C1339   1.403       .  A
C1338      F1343   1.358       .  S
C1339      C1340   1.407       .  A
C1340      F1341   1.357       .  S
C1345      C1346   1.409       .  A
C1345      C1350   1.405       .  A
C1345      F1352   1.357       .  S
C1346      C1347   1.405       .  A
C1347      C1896   1.398       .  A
C1347      F1354   1.358       .  S
C1348      C1895   1.398       .  A
C1348      C1349   1.408       .  A
C1348      F1353   1.358       .  S
C1349      C1898   1.406       .  A
C1350      C1897   1.406       .  A
C1350      F1351   1.357       .  S
C1355      C1356   1.399       .  A
C1355      C1360   1.398       .  A
C1355      F1362   1.358       .  S
C1356      C1357   1.407       .  A
C1357      C1358   1.401       .  A
C1357      F1364   1.357       .  S
C1358      C1359   1.405       .  A
C1358      F1363   1.358       .  S
C1359      C1360   1.408       .  A
C1360      F1361   1.357       .  S
C1365      C1366   1.407       .  A
C1365      C1918   1.397       .  A
C1365      F1372   1.358       .  S
C1366      C1367   1.410       .  A
C1367      C1368   1.407       .  A
C1367      F1374   1.357       .  S
C1368      C1917   1.407       .  A
C1368      F1373   1.357       .  S
C1369      C1916   1.407       .  A
C1369      C1370   1.407       .  A
C1370      C1913   1.397       .  A
C1370      F1371   1.358   1_565  S
C1375      C1376   1.409       .  A
C1375      C1380   1.398       .  A
C1375      F1382   1.358       .  S
C1376      C1377   1.407       .  A
C1377      C1378   1.402       .  A
C1377      F1384   1.358       .  S
C1378      C1379   1.408       .  A
C1378      F1383   1.358       .  S
C1379      C1380   1.400       .  A
C1380      F1381   1.358       .  S
C1385      C1386   1.406       .  A
C1385      C1938   1.396       .  A
C1385      F1392   1.358       .  S
C1386      C1935   1.398       .  A
C1387      C1934   1.398       .  A
C1387      C1388   1.397       .  A
C1387      F1942   1.358       .  S
C1388      C1389   1.408       .  A
C1388      F1393   1.358       .  S
C1389      C1390   1.404       .  A
C1390      C1933   1.396       .  A
C1390      F1391   1.358       .  S
F1394      C1935   1.358   1_545  S
C1395      C1396   1.403       .  A
C1395      C1400   1.391       .  A
C1395      F1402   1.358       .  S
C1396      C1397   1.407       .  A
C1397      C1398   1.403       .  A
C1397      F1404   1.357       .  S
C1398      C1399   1.405       .  A
C1398      F1403   1.357       .  S
C1399      C1400   1.406       .  A
C1400      F1401   1.358       .  S
C1405      C1406   1.412       .  A
C1405      C1410   1.409       .  A
C1405      F1412   1.356       .  S
C1406      C1407   1.413       .  A
C1407      C1408   1.390       .  A
C1407      F1414   1.358       .  S
C1408      C1409   1.400       .  A
C1408      F1413   1.357   1_554  S
C1409      C1410   1.408       .  A
C1410      F1411   1.357       .  S
C1415      C1416   1.409       .  A
C1415      C1420   1.399       .  A
C1415      F1422   1.355       .  S
C1416      C1417   1.405       .  A
C1417      C1418   1.401       .  A
C1417      F1424   1.357       .  S
C1418      C1419   1.409       .  A
C1418      F1423   1.357       .  S
C1419      C1420   1.401       .  A
C1420      F1421   1.357       .  S
C1425      C1426   1.408       .  A
C1425      C1430   1.408       .  A
C1425      F1432   1.357       .  S
C1426      C1427   1.400       .  A
C1427      C1428   1.390       .  A
C1427      F1434   1.357   1_556  S
C1428      C1429   1.413       .  A
C1428      F1433   1.358       .  S
C1429      C1430   1.411       .  A
C1430      F1431   1.356       .  S
C1435      C1436   1.405       .  A
C1435      C1440   1.402       .  A
C1435      F1442   1.357       .  S
C1436      C1437   1.411       .  A
C1437      C1438   1.400       .  A
C1437      F1444   1.355       .  S
C1438      C1439   1.401       .  A
C1438      F1443   1.357       .  S
C1439      C1440   1.409       .  A
C1440      F1441   1.357       .  S
C1445      C1446   1.411       .  A
C1445      C1450   1.406       .  A
C1445      F2000   1.355       .  S
C1446      C1756   1.487       .  S
C1446      C1447   1.403       .  A
C1447      C1448   1.388       .  A
C1447      F1454   1.357       .  S
C1448      C1449   1.403       .  A
C1448      F1453   1.356       .  S
C1449      C1450   1.403       .  A
C1450      F1999   1.357       .  S
F1451      C1998   1.357       .  S
F1452      C1993   1.355       .  S
C1455      C1456   1.412       .  A
C1455      C1460   1.401       .  A
C1455      F2010   1.357       .  S
C1456      C1755   1.496       .  S
C1456      C1457   1.408       .  A
C1457      C1458   1.395       .  A
C1457      F1464   1.350       .  S
C1458      C1459   1.400       .  A
C1458      F1463   1.358       .  S
C1459      C1460   1.400       .  A
C1460      F2009   1.358       .  S
F1461      C2008   1.358       .  S
F1462      C2003   1.357       .  S
C1465      C1466   1.402   1_565  A
C1465      C1470   1.406       .  A
C1465      F2020   1.357       .  S
C1466      C1467   1.403       .  A
C1467      C1468   1.388       .  A
C1467      F1474   1.356       .  S
C1468      C1469   1.403       .  A
C1468      F1473   1.357       .  S
C1469      C1470   1.411   1_545  A
C1470      F2019   1.355       .  S
F1471      C2018   1.355       .  S
F1472      C2013   1.357       .  S
C1475      C1476   1.411       .  A
C1475      C1480   1.401       .  A
C1475      F2030   1.357       .  S
C1476      C1477   1.407   1_565  A
C1477      C1478   1.395       .  A
C1477      F1484   1.350       .  S
C1478      C1479   1.401       .  A
C1478      F1483   1.358       .  S
C1479      C1480   1.400   1_545  A
C1480      F1481   1.357       .  S
F1482      C2023   1.357       .  S
C1485      C2034   1.406       .  A
C1485      C1490   1.407       .  A
C1485      F2040   1.357       .  S
C1486      C2033   1.406       .  A
C1486      C2035   1.408       .  A
C1487      C2034   1.408       .  A
C1487      C1488   1.395       .  A
C1487      F2042   1.358       .  S
C1488      C1489   1.404       .  A
C1488      F1493   1.358       .  S
C1489      C1490   1.410       .  A
C1490      F1491   1.357       .  S
F1492      C2033   1.357       .  S
F1494      C2035   1.358   1_545  S
C1495      C1496   1.400       .  A
C1495      C1500   1.400       .  A
C1495      F1502   1.358       .  S
C1496      C1497   1.408       .  A
C1497      C1498   1.402       .  A
C1497      F1504   1.358       .  S
C1498      C1499   1.407       .  A
C1498      F1503   1.358       .  S
C1499      C1500   1.410       .  A
C1500      F1501   1.358       .  S
C1505      C1506   1.398       .  A
C1505      C2058   1.396       .  A
C1505      F1512   1.358   1_565  S
C1506      C2055   1.406       .  A
C1507      C2054   1.406       .  A
C1507      C1508   1.398       .  A
C1507      F1514   1.358       .  S
C1508      C1509   1.405       .  A
C1508      F1513   1.358       .  S
C1509      C1510   1.408       .  A
C1510      C2053   1.396       .  A
C1510      F1511   1.358       .  S
C1515      C1516   1.405       .  A
C1515      C1520   1.391       .  A
C1515      F1522   1.358       .  S
C1516      C1517   1.405       .  A
C1517      C1518   1.402       .  A
C1517      F1524   1.358       .  S
C1518      C1519   1.407       .  A
C1518      F1523   1.357       .  S
C1519      C1520   1.404       .  A
C1520      F1521   1.358       .  S
C1525      C2074   1.406       .  A
C1525      C1530   1.407       .  A
C1525      F1532   1.357       .  S
C1526      C2073   1.406       .  A
C1526      C1527   1.408       .  A
C1527      C2076   1.395       .  A
C1527      F1534   1.358       .  S
C1528      C2075   1.395       .  A
C1528      C1529   1.404       .  A
C1528      F1533   1.358       .  S
C1529      C1530   1.409       .  A
C1530      F1531   1.357       .  S
C1535      C1536   1.407       .  A
C1535      C1540   1.400       .  A
C1535      F1542   1.357       .  S
C1536      C1537   1.400       .  A
C1537      C1538   1.400       .  A
C1537      F1544   1.358       .  S
C1538      C1539   1.409       .  A
C1538      F1543   1.357       .  S
C1539      C1540   1.405       .  A
C1540      F1541   1.358       .  S
C1545      C1546   1.407       .  A
C1545      C2098   1.398       .  A
C1545      F1552   1.358       .  S
C1546      C2095   1.398       .  A
C1547      C2094   1.398       .  A
C1547      C1548   1.396       .  A
C1547      F1554   1.358   1_545  S
C1548      C1549   1.408       .  A
C1548      F1553   1.358       .  S
C1549      C1550   1.404       .  A
C1550      C2093   1.398       .  A
C1550      F1551   1.358       .  S
C1555      C1556   1.407       .  A
C1555      C1560   1.401       .  A
C1555      F1562   1.357       .  S
C1556      C1557   1.405       .  A
C1557      C1558   1.390       .  A
C1557      F1564   1.358       .  S
C1558      C1559   1.405       .  A
C1558      F1563   1.358       .  S
C1559      C1560   1.404       .  A
C1560      F1561   1.358       .  S
C1565      C1566   1.407       .  A
C1565      C1570   1.386       .  A
C1565      F1572   1.352       .  S
C1566      C1567   1.406       .  A
C1567      C1568   1.410       .  A
C1567      F1574   1.357       .  S
C1568      C1569   1.410       .  A
C1568      F1573   1.356       .  S
C1569      C1570   1.398       .  A
C1570      F1571   1.357       .  S
C1575      C1576   1.398       .  A
C1575      C1580   1.398       .  A
C1575      F1582   1.358       .  S
C1576      C1577   1.404       .  A
C1577      C1578   1.398       .  A
C1577      F1584   1.358       .  S
C1578      C1579   1.404       .  A
C1578      F1583   1.356       .  S
C1579      C1580   1.408       .  A
C1580      F1581   1.356       .  S
C1585      C1586   1.406       .  A
C1585      C1590   1.387       .  A
C1585      F1592   1.354       .  S
C1586      C1587   1.403       .  A
C1587      C1588   1.406       .  A
C1587      F1594   1.357       .  S
C1588      C1589   1.409       .  A
C1588      F1593   1.356       .  S
C1589      C1590   1.398       .  A
C1590      F1591   1.358       .  S
C1595      C1596   1.405       .  A
C1595      C1600   1.397       .  A
C1595      F1602   1.355       .  S
C1596      C1597   1.409       .  A
C1597      C1598   1.398       .  A
C1597      F1604   1.357       .  S
C1598      C1599   1.399       .  A
C1598      F1603   1.358       .  S
C1599      C1600   1.403       .  A
C1600      F1601   1.358       .  S
C1605      C1606   1.409       .  A
C1605      C1610   1.411       .  A
C1605      F2160   1.357   1_545  S
C1606      C1646   1.491       .  S
C1606      C1607   1.398       .  A
C1607      C1608   1.387       .  A
C1607      F1614   1.358       .  S
C1608      C1609   1.414       .  A
C1608      F1613   1.354       .  S
C1609      C1610   1.411       .  A
C1610      F1611   1.357   1_545  S
F1612      C2153   1.357       .  S
C1615      C1616   1.405   1_565  A
C1615      C1620   1.403       .  A
C1615      F2170   1.357       .  S
C1616      C1617   1.415       .  A
C1617      C1618   1.395       .  A
C1617      F1624   1.353       .  S
C1618      C1619   1.396       .  A
C1618      F1623   1.358       .  S
C1619      C1620   1.410   1_545  A
C1620      F2169   1.357       .  S
F1621      C2168   1.357       .  S
F1622      C2163   1.357       .  S
C1625      C1626   1.411       .  A
C1625      C1630   1.410       .  A
C1625      F2180   1.357       .  S
C1626      C1627   1.416       .  A
C1627      C1628   1.386       .  A
C1627      F1634   1.354       .  S
C1628      C1629   1.396       .  A
C1628      F1633   1.358       .  S
C1629      C1630   1.409       .  A
C1630      F2179   1.357       .  S
F1631      C2178   1.357   1_545  S
F1632      C2173   1.357   1_545  S
C1635      C1636   1.415       .  A
C1635      C1640   1.397       .  A
C1635      F1642   1.352       .  S
C1636      C1637   1.405       .  A
C1637      C1638   1.403       .  A
C1637      F1644   1.357       .  S
C1638      C1639   1.409       .  A
C1638      F1643   1.357       .  S
C1639      C1645   1.486       .  S
C1639      C1640   1.396       .  A
C1640      F1641   1.357       .  S
C1645      C2167   1.484       .  S
C1646      C2177   1.488   1_545  S
C1647      C2127   1.487       .  S
C1647      C2144   1.488       .  S
C1648      C2117   1.484       .  S
C1648      C2137   1.482       .  S
C1649      N1667   1.361       .  A
C1649      C1686   1.453       .  S
C1649      C2184   1.490       .  S
N1650      N1667   1.332       .  A
N1650      N1672   1.318       .  A
N1650     Co1687   2.122       .  S
C1651      N1676   1.351       .  A
C1651      C1689   1.467       .  S
C1651      H1696   1.081       .  S
H1652      C1693   1.081       .  S
C1653      N1677   1.338       .  A
C1653      C1657   1.465       .  S
C1653      H1682   1.082       .  S
Co1654     N1672   2.056       .  S
Co1654     N1662   2.054       .  S
Co1654     N1694   2.048       .  S
Co1654     N1670   2.066       .  S
Co1654    Cl1698   2.434       .  S
N1655      C1693   1.348       .  A
N1655      N1662   1.316       .  A
N1655     Co1656   2.088       .  S
Co1656     N1659   2.071       .  S
Co1656     N1676   2.092       .  S
Co1656     N1663   2.072       .  S
Co1656    Cl1698   2.459       .  S
C1657      N1695   1.347       .  A
C1657      C2107   1.469       .  S
N1658      N1665   1.320       .  A
N1658      N1688   1.323       .  A
N1658     Co1691   2.090       .  S
N1659      N1677   1.319       .  A
N1659      N1695   1.322       .  A
N1660      C1689   1.341       .  A
N1660      N1670   1.315       .  A
H1661      C1686   1.080       .  S
N1662      N1683   1.317       .  A
N1663      N1681   1.319       .  A
N1663      N1668   1.322       .  A
C1664      N1668   1.347       .  A
C1664      C1692   1.465       .  S
C1664      C2084   1.472       .  S
N1665      C1680   1.338       .  A
N1665     Co1687   2.075       .  S
C1666      N1694   1.323       .  A
C1666      C1669   1.450       .  S
C1666      H1700   1.077       .  S
C1669      N1690   1.365       .  A
C1669      C2174   1.494       .  S
N1670      N1676   1.317       .  A
N1671      C1697   1.346       .  A
N1671      N1673   1.323       .  A
N1671     Co1687   2.099       .  S
N1672      C1686   1.332       .  A
N1673      N1701   1.321       .  A
N1673     Co1691   2.088       .  S
H1674      C1697   1.081   1_545  S
H1675      C1692   1.082       .  S
N1677     Co1691   2.086       .  S
N1678      N1690   1.335       .  A
N1678      N1694   1.315       .  A
N1678     Co1687   2.117       .  S
C1679      N1683   1.341       .  A
C1679      C1693   1.462       .  S
C1679      C2147   1.462       .  S
C1680      C1699   1.458       .  S
C1680      H1684   1.082   1_565  S
N1681      C1692   1.343       .  A
N1681     Co1691   2.096       .  S
C1685      N1701   1.349       .  A
C1685      C1697   1.466       .  S
C1685      C2074   1.482   1_565  S
Co1687    Cl1698   2.467       .  S
N1688      C1699   1.350       .  A
C1689      C2134   1.475       .  S
Co1691    Cl1698   2.428       .  S
C1699      C2094   1.465   1_565  S
C1702      N1720   1.361       .  A
C1702      C1739   1.450       .  S
C1702      C2164   1.488       .  S
N1703      N1720   1.333       .  A
N1703      N1725   1.317       .  A
N1703     Co1740   2.120       .  S
C1704      N1729   1.353       .  A
C1704      C1742   1.471       .  S
C1704      H1749   1.081       .  S
H1705      C1746   1.081       .  S
C1706      N1730   1.338       .  A
C1706      C1710   1.464       .  S
C1706      H1735   1.082       .  S
Co1707     N1725   2.050       .  S
Co1707     N1715   2.058       .  S
Co1707     N1747   2.055       .  S
Co1707     N1723   2.067       .  S
Co1707    Cl1751   2.437       .  S
N1708      C1746   1.348       .  A
N1708      N1715   1.317       .  A
N1708     Co1709   2.090       .  S
Co1709     N1712   2.074       .  S
Co1709     N1729   2.100       .  S
Co1709     N1716   2.078       .  S
Co1709    Cl1751   2.465       .  S
C1710      N1748   1.348       .  A
C1710      C2064   1.470       .  S
N1711      N1718   1.321       .  A
N1711      N1741   1.324       .  A
N1711     Co1744   2.094       .  S
N1712      N1730   1.319       .  A
N1712      N1748   1.322       .  A
N1713      C1742   1.343       .  A
N1713      N1723   1.316       .  A
H1714      C1739   1.080       .  S
N1715      N1736   1.318       .  A
N1716      N1734   1.321       .  A
N1716      N1721   1.323       .  A
C1717      N1721   1.349       .  A
C1717      C1745   1.464       .  S
C1717      C2044   1.475       .  S
N1718      C1733   1.338       .  A
N1718     Co1740   2.072       .  S
C1719      N1747   1.325       .  A
C1719      C1722   1.454       .  S
C1719      H1753   1.077       .  S
C1722      N1743   1.363       .  A
C1722      C2157   1.495       .  S
N1723      N1729   1.317       .  A
N1724      C1750   1.346       .  A
N1724      N1726   1.323       .  A
N1724     Co1740   2.098       .  S
N1725      C1739   1.330       .  A
N1726      N1754   1.321       .  A
N1726     Co1744   2.089       .  S
H1727      C1750   1.082       .  S
H1728      C1745   1.082       .  S
N1730     Co1744   2.086       .  S
N1731      N1743   1.334       .  A
N1731      N1747   1.316       .  A
N1731     Co1740   2.113       .  S
C1732      N1736   1.342       .  A
C1732      C1746   1.461       .  S
C1732      C2124   1.465       .  S
C1733      C1752   1.457       .  S
C1733      H1737   1.082       .  S
N1734      C1745   1.343       .  A
N1734     Co1744   2.098       .  S
C1738      N1754   1.349       .  A
C1738      C1750   1.466       .  S
C1738      C2034   1.482       .  S
Co1740    Cl1751   2.465       .  S
N1741      C1752   1.351       .  A
C1742      C2114   1.482       .  S
Co1744    Cl1751   2.425       .  S
C1752      C2054   1.465       .  S
C1755      C2024   1.496   1_554  S
C1755      C1756   1.362       .  D
C1756      C2017   1.487   1_554  S
C1757      C1967   1.487       .  S
C1757      C1987   1.488   1_554  S
C1757      C1758   1.358       .  D
C1758      C1957   1.490       .  S
C1758      C1974   1.489   1_554  S
C1759      N1777   1.353       .  A
C1759      C1796   1.447       .  S
C1759      C2027   1.466       .  S
N1760      N1777   1.331       .  A
N1760      N1782   1.318       .  A
N1760     Co1797   2.099       .  S
C1761      N1786   1.351       .  A
C1761      C1799   1.475       .  S
C1761      H1806   1.081       .  S
H1762      C1803   1.082       .  S
C1763      N1787   1.336       .  A
C1763      C1767   1.462       .  S
C1763      H1792   1.081       .  S
Co1764     N1782   2.055       .  S
Co1764     N1772   2.072       .  S
Co1764    Cl1808   2.442       .  S
N1765      C1803   1.348       .  A
N1765      N1772   1.318       .  A
N1765     Co1766   2.103       .  S
Co1766     N1769   2.078       .  S
Co1766    Cl1808   2.463       .  S
C1767      N1805   1.349       .  A
C1767      C1947   1.472       .  S
N1768      N1775   1.319       .  A
N1768      N1798   1.324       .  A
N1768     Co1801   2.090       .  S
N1769      N1787   1.320       .  A
N1769      N1805   1.324       .  A
N1770      C1799   1.345       .  A
N1770      N1780   1.318       .  A
H1771      C1796   1.080       .  S
N1772      N1793   1.322       .  A
N1773      N1791   1.322       .  A
N1773      N1778   1.325       .  A
C1774      N1778   1.350       .  A
C1774      C1802   1.460       .  S
C1774      C1927   1.473       .  S
N1775      C1790   1.336       .  A
N1775     Co1797   2.068       .  S
C1776      N1804   1.329       .  A
C1776      C1779   1.449       .  S
C1776      H1810   1.078       .  S
C1779      N1800   1.354       .  A
C1779      C2014   1.473       .  S
N1780      N1786   1.317       .  A
N1781      C1807   1.343       .  A
N1781      N1783   1.321       .  A
N1782      C1796   1.331       .  A
N1783      N1811   1.324       .  A
H1784      C1807   1.082       .  S
H1785      C1802   1.081       .  S
N1787     Co1801   2.086       .  S
N1788      N1800   1.331       .  A
N1788      N1804   1.319       .  A
C1789      N1793   1.346       .  A
C1789      C1803   1.469       .  S
C1789      C1984   1.485       .  S
C1790      C1809   1.456       .  S
C1790      H1794   1.082       .  S
N1791      C1802   1.340       .  A
C1795      N1811   1.353       .  A
C1795      C1807   1.462       .  S
C1795      C1917   1.485       .  S
Co1797    Cl1808   2.459       .  S
N1798      C1809   1.352       .  A
C1799      C1977   1.492       .  S
Co1801    Cl1808   2.430       .  S
C1809      C1934   1.464       .  S
C1812      C1914   1.500       .  S
C1812      C2037   1.495       .  S
C1812      C1813   1.370       .  D
C1813      C1924   1.492       .  S
C1813      C2047   1.495       .  S
C1814      C1944   1.484       .  S
C1814      C2067   1.485       .  S
C1814      C1815   1.360       .  D
C1815      C1937   1.483       .  S
C1815      C2057   1.485       .  S
C1816      C1907   1.487       .  S
C1816      C2087   1.488       .  S
C1816      C1817   1.365       .  D
C1817      C1894   1.496       .  S
C1817      C2077   1.493       .  S
C1818      C1887   1.484       .  S
C1818      C2104   1.485       .  S
C1818      C1819   1.360       .  D
C1819      C1877   1.483       .  S
C1819      C2097   1.483       .  S
C1820      N1838   1.352       .  A
C1820      C1857   1.448       .  S
C1820      C2007   1.466       .  S
N1821      N1838   1.330       .  A
N1821      N1843   1.319       .  A
N1821     Co1858   2.099       .  S
C1822      N1847   1.351       .  A
C1822      C1860   1.475       .  S
C1822      H1867   1.081       .  S
H1823      C1864   1.082       .  S
C1824      N1848   1.336       .  A
C1824      C1828   1.463       .  S
C1824      H1853   1.081       .  S
Co1825     N1843   2.057       .  S
Co1825     N1833   2.076       .  S
Co1825    Cl1869   2.440       .  S
N1826      C1864   1.346       .  A
N1826      N1833   1.318       .  A
N1826     Co1827   2.097       .  S
Co1827     N1830   2.077       .  S
Co1827    Cl1869   2.463       .  S
C1828      N1866   1.349       .  A
C1828      C1884   1.471       .  S
N1829      N1836   1.319       .  A
N1829      N1859   1.324       .  A
N1829     Co1862   2.090       .  S
N1830      N1848   1.320       .  A
N1830      N1866   1.323       .  A
N1831      C1860   1.345       .  A
N1831      N1841   1.318       .  A
H1832      C1857   1.080       .  S
N1833      N1854   1.323       .  A
N1834      N1852   1.322       .  A
N1834      N1839   1.324       .  A
C1835      N1839   1.349       .  A
C1835      C1863   1.461       .  S
C1835      C1904   1.470       .  S
N1836      C1851   1.336   1_565  A
N1836     Co1858   2.070       .  S
C1837      N1865   1.329       .  A
C1837      C1840   1.449       .  S
C1837      H1871   1.078       .  S
C1840      N1861   1.355       .  A
C1840      C1997   1.474       .  S
N1841      N1847   1.317       .  A
N1842      C1868   1.343       .  A
N1842      N1844   1.321       .  A
N1843      C1857   1.332       .  A
N1844      N1872   1.324       .  A
H1845      C1868   1.082   1_545  S
H1846      C1863   1.081       .  S
N1848     Co1862   2.083       .  S
N1849      N1861   1.331       .  A
N1849      N1865   1.319       .  A
C1850      N1854   1.348       .  A
C1850      C1864   1.466       .  S
C1850      C1964   1.483       .  S
C1851      C1870   1.457   1_545  S
C1851      H1855   1.082       .  S
N1852      C1863   1.341       .  A
C1856      N1872   1.352       .  A
C1856      C1868   1.462       .  S
C1856      C1897   1.483   1_565  S
Co1858    Cl1869   2.458       .  S
N1859      C1870   1.351       .  A
C1860      C1954   1.493       .  S
Co1862    Cl1869   2.432       .  S
C1870      C1874   1.465   1_565  S
C1873      C1878   1.397       .  A
C1873      F1880   1.358       .  S
C1874      C1875   1.399       .  A
C1875      F1882   1.358   1_545  S
C1876      C1877   1.408       .  A
C1876      F1881   1.358       .  S
C1877      C1878   1.404       .  A
C1878      F1879   1.358       .  S
C1883      C1884   1.405       .  A
C1883      C1888   1.403       .  A
C1883      F1890   1.357       .  S
C1884      C1885   1.406       .  A
C1885      C1886   1.389       .  A
C1885      F1892   1.358       .  S
C1886      C1887   1.403       .  A
C1886      F1891   1.358       .  S
C1887      C1888   1.407       .  A
C1888      F1889   1.357       .  S
C1893      C1894   1.409       .  A
C1893      C1898   1.405       .  A
C1893      F1900   1.357       .  S
C1894      C1895   1.405       .  A
C1895      F1902   1.358       .  S
C1896      C1897   1.408       .  A
C1896      F1901   1.358   1_545  S
C1898      F1899   1.357       .  S
C1903      C1904   1.399       .  A
C1903      C1908   1.398       .  A
C1903      F1910   1.358       .  S
C1904      C1905   1.407       .  A
C1905      C1906   1.401       .  A
C1905      F1912   1.357       .  S
C1906      C1907   1.405       .  A
C1906      F1911   1.358       .  S
C1907      C1908   1.408       .  A
C1908      F1909   1.357       .  S
C1913      C1914   1.407       .  A
C1913      F1920   1.358       .  S
C1914      C1915   1.410       .  A
C1915      C1916   1.407       .  A
C1915      F1922   1.357       .  S
C1916      F1921   1.357       .  S
C1917      C1918   1.407       .  A
C1918      F1919   1.358       .  S
C1923      C1924   1.409       .  A
C1923      C1928   1.398       .  A
C1923      F1930   1.358       .  S
C1924      C1925   1.407       .  A
C1925      C1926   1.402       .  A
C1925      F1932   1.358       .  S
C1926      C1927   1.408       .  A
C1926      F1931   1.358       .  S
C1927      C1928   1.400       .  A
C1928      F1929   1.358       .  S
C1933      C1934   1.406       .  A
C1933      F1940   1.358       .  S
C1935      C1936   1.397       .  A
C1936      C1937   1.408       .  A
C1936      F1941   1.358       .  S
C1937      C1938   1.404       .  A
C1938      F1939   1.358       .  S
C1943      C1944   1.403       .  A
C1943      C1948   1.391       .  A
C1943      F1950   1.358       .  S
C1944      C1945   1.407       .  A
C1945      C1946   1.403       .  A
C1945      F1952   1.357       .  S
C1946      C1947   1.405       .  A
C1946      F1951   1.357       .  S
C1947      C1948   1.406       .  A
C1948      F1949   1.358       .  S
C1953      C1954   1.412       .  A
C1953      C1958   1.409       .  A
C1953      F1960   1.356       .  S
C1954      C1955   1.413       .  A
C1955      C1956   1.390       .  A
C1955      F1962   1.358       .  S
C1956      C1957   1.400       .  A
C1956      F1961   1.357   1_554  S
C1957      C1958   1.408       .  A
C1958      F1959   1.357       .  S
C1963      C1964   1.409       .  A
C1963      C1968   1.399       .  A
C1963      F1970   1.355       .  S
C1964      C1965   1.405       .  A
C1965      C1966   1.401       .  A
C1965      F1972   1.357       .  S
C1966      C1967   1.409       .  A
C1966      F1971   1.357       .  S
C1967      C1968   1.401       .  A
C1968      F1969   1.357       .  S
C1973      C1974   1.408       .  A
C1973      C1978   1.408       .  A
C1973      F1980   1.357       .  S
C1974      C1975   1.400       .  A
C1975      C1976   1.390       .  A
C1975      F1982   1.357   1_556  S
C1976      C1977   1.413       .  A
C1976      F1981   1.358       .  S
C1977      C1978   1.411       .  A
C1978      F1979   1.356       .  S
C1983      C1984   1.405       .  A
C1983      C1988   1.402       .  A
C1983      F1990   1.357       .  S
C1984      C1985   1.411       .  A
C1985      C1986   1.400       .  A
C1985      F1992   1.355       .  S
C1986      C1987   1.401       .  A
C1986      F1991   1.357       .  S
C1987      C1988   1.409       .  A
C1988      F1989   1.357       .  S
C1993      C1994   1.411   1_545  A
C1993      C1998   1.406       .  A
C1994      C1995   1.403       .  A
C1995      C1996   1.388       .  A
C1995      F2002   1.357       .  S
C1996      C1997   1.403       .  A
C1996      F2001   1.356       .  S
C1997      C1998   1.403   1_565  A
C2003      C2004   1.412       .  A
C2003      C2008   1.401       .  A
C2004      C2005   1.408   1_545  A
C2005      C2006   1.395       .  A
C2005      F2012   1.350       .  S
C2006      C2007   1.400       .  A
C2006      F2011   1.358       .  S
C2007      C2008   1.400   1_565  A
C2013      C2014   1.402       .  A
C2013      C2018   1.406       .  A
C2014      C2015   1.403       .  A
C2015      C2016   1.388       .  A
C2015      F2022   1.356       .  S
C2016      C2017   1.403       .  A
C2016      F2021   1.357       .  S
C2017      C2018   1.411       .  A
C2023      C2024   1.411       .  A
C2023      C2028   1.401       .  A
C2024      C2025   1.407       .  A
C2025      C2026   1.395       .  A
C2025      F2032   1.350       .  S
C2026      C2027   1.401       .  A
C2026      F2031   1.358       .  S
C2027      C2028   1.400       .  A
C2028      F2029   1.357       .  S
C2033      C2038   1.407       .  A
C2035      C2036   1.395       .  A
C2036      C2037   1.404       .  A
C2036      F2041   1.358       .  S
C2037      C2038   1.410       .  A
C2038      F2039   1.357       .  S
C2043      C2044   1.400       .  A
C2043      C2048   1.400       .  A
C2043      F2050   1.358       .  S
C2044      C2045   1.408       .  A
C2045      C2046   1.402       .  A
C2045      F2052   1.358       .  S
C2046      C2047   1.407       .  A
C2046      F2051   1.358       .  S
C2047      C2048   1.410       .  A
C2048      F2049   1.358       .  S
C2053      C2054   1.398       .  A
C2053      F2060   1.358       .  S
C2055      C2056   1.398       .  A
C2055      F2062   1.358       .  S
C2056      C2057   1.405       .  A
C2056      F2061   1.358       .  S
C2057      C2058   1.408       .  A
C2058      F2059   1.358       .  S
C2063      C2064   1.405       .  A
C2063      C2068   1.391       .  A
C2063      F2070   1.358       .  S
C2064      C2065   1.405       .  A
C2065      C2066   1.402       .  A
C2065      F2072   1.358       .  S
C2066      C2067   1.407       .  A
C2066      F2071   1.357       .  S
C2067      C2068   1.404       .  A
C2068      F2069   1.358       .  S
C2073      C2078   1.407       .  A
C2073      F2080   1.357       .  S
C2074      C2075   1.408       .  A
C2075      F2082   1.358   1_545  S
C2076      C2077   1.404       .  A
C2076      F2081   1.358       .  S
C2077      C2078   1.409       .  A
C2078      F2079   1.357       .  S
C2083      C2084   1.407       .  A
C2083      C2088   1.400       .  A
C2083      F2090   1.357       .  S
C2084      C2085   1.400       .  A
C2085      C2086   1.400       .  A
C2085      F2092   1.358       .  S
C2086      C2087   1.409       .  A
C2086      F2091   1.357       .  S
C2087      C2088   1.405       .  A
C2088      F2089   1.358       .  S
C2093      C2094   1.407       .  A
C2093      F2100   1.358       .  S
C2095      C2096   1.396       .  A
C2095      F2102   1.358       .  S
C2096      C2097   1.408       .  A
C2096      F2101   1.358       .  S
C2097      C2098   1.404       .  A
C2098      F2099   1.358       .  S
C2103      C2104   1.407       .  A
C2103      C2108   1.401       .  A
C2103      F2110   1.357       .  S
C2104      C2105   1.405       .  A
C2105      C2106   1.390       .  A
C2105      F2112   1.358       .  S
C2106      C2107   1.405       .  A
C2106      F2111   1.358       .  S
C2107      C2108   1.404       .  A
C2108      F2109   1.358       .  S
C2113      C2114   1.407       .  A
C2113      C2118   1.386       .  A
C2113      F2120   1.352       .  S
C2114      C2115   1.406       .  A
C2115      C2116   1.410       .  A
C2115      F2122   1.357       .  S
C2116      C2117   1.410       .  A
C2116      F2121   1.356       .  S
C2117      C2118   1.398       .  A
C2118      F2119   1.357       .  S
C2123      C2124   1.398       .  A
C2123      C2128   1.398       .  A
C2123      F2130   1.358       .  S
C2124      C2125   1.404       .  A
C2125      C2126   1.398       .  A
C2125      F2132   1.358       .  S
C2126      C2127   1.404       .  A
C2126      F2131   1.356       .  S
C2127      C2128   1.408       .  A
C2128      F2129   1.356       .  S
C2133      C2134   1.406       .  A
C2133      C2138   1.387       .  A
C2133      F2140   1.354       .  S
C2134      C2135   1.403       .  A
C2135      C2136   1.406       .  A
C2135      F2142   1.357       .  S
C2136      C2137   1.409       .  A
C2136      F2141   1.356       .  S
C2137      C2138   1.398       .  A
C2138      F2139   1.358       .  S
C2143      C2144   1.405       .  A
C2143      C2148   1.397       .  A
C2143      F2150   1.355       .  S
C2144      C2145   1.409       .  A
C2145      C2146   1.398       .  A
C2145      F2152   1.357       .  S
C2146      C2147   1.399       .  A
C2146      F2151   1.358       .  S
C2147      C2148   1.403       .  A
C2148      F2149   1.358       .  S
C2153      C2154   1.409       .  A
C2153      C2158   1.411       .  A
C2154      C2155   1.398       .  A
C2155      C2156   1.387       .  A
C2155      F2162   1.358       .  S
C2156      C2157   1.414       .  A
C2156      F2161   1.354       .  S
C2157      C2158   1.411       .  A
C2158      F2159   1.357       .  S
C2163      C2164   1.405       .  A
C2163      C2168   1.403       .  A
C2164      C2165   1.415       .  A
C2165      C2166   1.395       .  A
C2165      F2172   1.353       .  S
C2166      C2167   1.396       .  A
C2166      F2171   1.358       .  S
C2167      C2168   1.410       .  A
C2173      C2174   1.411       .  A
C2173      C2178   1.410       .  A
C2174      C2175   1.416       .  A
C2175      C2176   1.386       .  A
C2175      F2182   1.354       .  S
C2176      C2177   1.396       .  A
C2176      F2181   1.358       .  S
C2177      C2178   1.409       .  A
C2183      C2184   1.415       .  A
C2183      C2188   1.397       .  A
C2183      F2190   1.352       .  S
C2184      C2185   1.405       .  A
C2185      C2186   1.403   1_565  A
C2185      F2192   1.357   1_565  S
C2186      C2187   1.409   1_545  A
C2186      F2191   1.357       .  S
C2187      C2188   1.396       .  A
C2188      F2189   1.357       .  S
