geometry optimzed in LAMMPS
_audit_creation_date              2020-12-01 
_audit_creation_method            'lammps2cif' 
_symmetry_space_group_name_H-M    'P1' 
_symmetry_Int_Tables_number       1 
_symmetry_cell_setting            triclinic 
loop_ 
_symmetry_equiv_pos_as_xyz 
  x,y,z 
_cell_length_a                    27.50756912 
_cell_length_b                    27.749655591951388 
_cell_length_c                    45.13430598454264 
_cell_angle_alpha                 90.50817702288066 
_cell_angle_beta                  89.80965495153166 
_cell_angle_gamma                 119.74413799951522 
loop_ 
_atom_site_label 
_atom_site_type_symbol 
_atom_site_fract_x 
_atom_site_fract_y 
_atom_site_fract_z 
_atom_site_charge 
C1          C  0.16645632  0.33241456  0.60483983     0.46100
H2          H  0.16568714  0.33165217  0.58018575    -0.02900
C3          C  0.16792765  0.33324645  0.66233761     0.46200
H4          H  0.16862273  0.33382941  0.68693940    -0.02900
C5          C  0.22501840  0.35945161  0.61758855    -0.16600
C6          C  0.13978258  0.36382807  0.61808166    -0.16300
C7          C  0.13557939  0.27504558  0.61802480    -0.16700
C8          C  0.22741461  0.36076337  0.64793046    -0.16700
C9          C  0.13934044  0.36454463  0.64847580    -0.16200
C10         C  0.13596843  0.27366594  0.64835682    -0.16600
C11         C  0.17028356  0.33336166  0.84333677     0.46100
H12         H  0.17111308  0.33350167  0.86796379    -0.02900
C13         C  0.16857531  0.33376580  0.78587933     0.46200
H14         H  0.16787188  0.33371444  0.76127573    -0.02900
C15         C  0.22781472  0.36678343  0.82989734    -0.16600
C16         C  0.14593698  0.27595634  0.83000088    -0.16300
C17         C  0.13602756  0.35757798  0.83106461    -0.16700
C18         C  0.22856681  0.36739614  0.79954171    -0.16700
C19         C  0.14339762  0.27451634  0.79964975    -0.16200
C20         C  0.13527364  0.35980207  0.80068160    -0.16600
C21         C  0.50231105  0.00105720  0.69487027     0.46100
H22         H  0.00293813  0.00088134  0.67061644    -0.02900
C23         C  0.50207161  0.00118305  0.75282038     0.46200
H24         H  0.50186123  0.00147474  0.77742966    -0.02900
C25         C  0.03148584  0.47124373  0.70942784    -0.16600
C26         C  0.03246815  0.06037903  0.70906032    -0.16300
C27         C  0.44304005  0.47244985  0.70845311    -0.16700
C28         C  0.03232844  0.47229326  0.73995274    -0.16700
C29         C  0.03159912  0.06038239  0.73953654    -0.16200
C30         C  0.44292129  0.47168576  0.73891124    -0.16600
C31         C  0.33398115  0.16886194  0.28584840     0.46100
H32         H  0.33268545  0.16814415  0.26126018    -0.02900
C33         C  0.33709406  0.17052942  0.34333106     0.46200
H34         H  0.33873882  0.17132977  0.36799380    -0.02900
C35         C  0.27500511  0.14318986  0.30082256    -0.15400
C36         C  0.36092773  0.13591388  0.29939105    -0.16300
C37         C  0.36815742  0.22846593  0.29945106    -0.16700
C38         C  0.27823409  0.14552925  0.33122439    -0.16700
C39         C  0.36103910  0.13696307  0.32973149    -0.16200
C40         C  0.36956577  0.22749437  0.32973810    -0.16600
C41         C  0.33631043  0.16992619  0.16300169     0.46100
H42         H  0.33666306  0.17016779  0.18761438    -0.02900
C43         C  0.33560681  0.16969866  0.10540465     0.46200
H44         H  0.33521015  0.16933454  0.08073548    -0.02900
C45         C  0.27682016  0.13445327  0.14915796    -0.16600
C46         C  0.35953628  0.22863714  0.14900948    -0.16300
C47         C  0.37197982  0.14627643  0.14867949    -0.16700
C48         C  0.27808645  0.13414004  0.11883030    -0.16700
C49         C  0.35738465  0.22707079  0.11863879    -0.16200
C50         C  0.37208392  0.14838548  0.11835371    -0.16600
C51         C  0.00218151  0.00147480  0.19482426     0.46100
H52         H  0.00270261  0.00125319  0.17021413    -0.02900
C53         C  0.00084241  0.00160259  0.25279492     0.46200
H54         H  0.00022288  0.00169751  0.27739603    -0.02900
C55         C  0.47114002  0.03050495  0.20842700    -0.16600
C56         C  0.47262991  0.44216702  0.20861976    -0.16300
C57         C  0.06121366  0.03155185  0.20900259    -0.16700
C58         C  0.47116828  0.03097830  0.23891619    -0.16700
C59         C  0.47185165  0.44196424  0.23905634    -0.16200
C60         C  0.06054319  0.03107836  0.23949866    -0.16600
Zn61       Zn  0.00308821  0.00133465  0.93408342     1.49700
Zn62       Zn  0.04371848  0.07978863  0.98579891     1.49400
Zn63       Zn  0.42584063  0.46628932  0.98658133     1.49100
Zn64       Zn  0.03995934  0.46321497  0.98731743     1.49500
O65         O  0.00305558  0.00249442  0.97542019    -1.83400
O66         O  0.01158227  0.06902988  0.91654532    -0.74100
O67         O  0.49472039  0.09854692  0.01065844    -0.73900
O68         O  0.37578575  0.44644601  0.95006474    -0.73400
O69         O  0.07282706  0.12832629  0.94887504    -0.74100
O70         O  0.43373329  0.44050841  0.91803101    -0.73700
O71         O  0.41576122  0.01743446  0.01341165    -0.74300
O72         O  0.49039127  0.40386469  0.01582463    -0.73700
O73         O  0.10470228  0.09151597  0.01361553    -0.74400
O74         O  0.40851113  0.40147606  0.01281168    -0.73800
O75         O  0.10452372  0.01119104  0.01274900    -0.74300
O76         O  0.06256595  0.43362348  0.95133067    -0.74200
O77         O  0.06309140  0.49201054  0.91799082    -0.74000
C78         C  0.05109299  0.11697529  0.92298628     0.77800
C79         C  0.44662374  0.06740509  0.02190672     0.78300
C80         C  0.38622721  0.43449510  0.92429753     0.77300
C81         C  0.44021191  0.38546174  0.02446009     0.77600
C82         C  0.12221383  0.05986729  0.02318295     0.78800
C83         C  0.07335005  0.45413615  0.92531493     0.77800
Zn84       Zn  0.04087981  0.46307186  0.46274497     1.49700
Zn85       Zn  0.42289519  0.46024116  0.46130003     1.49400
Zn86       Zn  0.99733405  0.99987546  0.51476604     1.49100
Zn87       Zn  0.03687129  0.07636656  0.46230918     1.49500
O88         O  0.99998763  0.00004340  0.47335674    -1.83400
O89         O  0.49324714  0.39855262  0.43707763    -0.74100
O90         O  0.37205594  0.43236488  0.49724064    -0.73900
O91         O  0.00196772  0.43739635  0.53168444    -0.73400
O92         O  0.41253915  0.39884959  0.43466042    -0.74100
O93         O  0.06542170  0.44039736  0.50026476    -0.73700
O94         O  0.42901339  0.49527226  0.52965315    -0.74300
O95         O  0.05753539  0.12598906  0.49893845    -0.73700
O96         O  0.40718299  0.00760261  0.43456823    -0.74400
O97         O  0.05903083  0.06736218  0.53152178    -0.73800
O98         O  0.48754157  0.08765570  0.43384658    -0.74300
O99         O  0.10353143  0.09256171  0.43785070    -0.74200
O100        O  0.10513376  0.01310885  0.43686511    -0.74000
C101        C  0.44463384  0.38068590  0.42614834     0.77800
C102        C  0.38160747  0.45467247  0.52296293     0.78300
C103        C  0.04195915  0.42874187  0.52572693     0.77300
C104        C  0.06877988  0.11542482  0.52469591     0.77600
C105        C  0.43807342  0.05605132  0.42427230     0.78800
C106        C  0.12306964  0.06253369  0.42795339     0.77800
C107        C  0.22984509  0.10646700  0.09876770    -0.04800
C108        C  0.19469288  0.12892424  0.09517078    -0.32200
C109        C  0.16069394  0.11561463  0.07005820     0.37000
C110        C  0.16050086  0.07788414  0.04871709    -0.05100
C111        C  0.19286066  0.05254771  0.05368418    -0.32100
C112        C  0.22742366  0.06673545  0.07844737     0.36900
H113        H  0.19641940  0.15961788  0.11080140     0.17300
O114        O  0.12734986  0.13908762  0.06685612    -0.59600
H115        H  0.19219939  0.02234884  0.03806148     0.17300
O116        O  0.26061709  0.04329903  0.08198725    -0.59700
H117        H  0.23594919  0.00641120  0.09080371     0.44300
H118        H  0.15194810  0.17602541  0.05803829     0.44300
C119        C  0.37742355  0.27477067  0.09839870    -0.04800
C120        C  0.43472780  0.31277053  0.09640038    -0.32200
C121        C  0.45586910  0.34893869  0.07234024     0.37000
C122        C  0.41927477  0.34729801  0.04987963    -0.05100
C123        C  0.36160623  0.31159837  0.05305521    -0.32100
C124        C  0.34072769  0.27549854  0.07698629     0.36900
H125        H  0.46345657  0.31236749  0.11263354     0.17300
O126        O  0.51237266  0.38521617  0.07087123    -0.59600
H127        H  0.33260709  0.31065493  0.03655921     0.17300
O128        O  0.28436005  0.23939217  0.07863109    -0.59700
H129        H  0.26865947  0.26021323  0.08905707     0.44300
H130        H  0.51843933  0.41834527  0.08240464     0.44300
C131        C  0.39979060  0.12847240  0.09779949    -0.04800
C132        C  0.37711800  0.07144194  0.09368923    -0.32200
C133        C  0.39003915  0.05094812  0.06833584     0.37000
C134        C  0.42839882  0.08809358  0.04735134    -0.05100
C135        C  0.45371607  0.14539435  0.05265357    -0.32100
C136        C  0.43913146  0.16560687  0.07749924     0.36900
H137        H  0.34641679  0.04267570  0.10915616     0.17300
O138        O  0.36525962  0.99454306  0.06452193    -0.59600
H139        H  0.48399074  0.17464970  0.03720511     0.17300
O140        O  0.46156253  0.22177096  0.08106730    -0.59700
H141        H  0.99651874  0.23302629  0.09314664     0.44300
H142        H  0.32876010  0.98335080  0.05489243     0.44300
C143        C  0.38627932  0.28206275  0.16574809    -0.04800
C144        C  0.43670645  0.29861712  0.18079312    -0.32200
C145        C  0.46722660  0.35214307  0.19307440     0.37000
C146        C  0.44696116  0.38977600  0.19087493    -0.05100
C147        C  0.39658706  0.37325320  0.17581067    -0.32100
C148        C  0.36623854  0.31981657  0.16329621     0.36900
H149        H  0.45317694  0.27044220  0.18234628     0.17300
O150        O  0.51623636  0.36700000  0.20783191    -0.59600
H151        H  0.37969045  0.40110802  0.17471782     0.17300
O152        O  0.31591542  0.30387539  0.14965944    -0.59700
H153        H  0.32491415  0.32805804  0.13209680     0.44300
H154        H  0.54565696  0.38152141  0.19235673     0.44300
C155        C  0.39840922  0.11843405  0.16501907    -0.04800
C156        C  0.36458416  0.07039888  0.18133875    -0.32200
C157        C  0.38694109  0.03925760  0.19375541     0.37000
C158        C  0.44441239  0.05648311  0.19056894    -0.05100
C159        C  0.47811386  0.10416783  0.17396019    -0.32100
C160        C  0.45570959  0.13523249  0.16146982     0.36900
H161        H  0.32033941  0.05622351  0.18386727     0.17300
O162        O  0.35223572  0.49150614  0.20994307    -0.59600
H163        H  0.02288013  0.12014773  0.17241726     0.17300
O164        O  0.49039920  0.18233951  0.14603138    -0.59700
H165        H  0.99852480  0.21414546  0.16136091     0.44300
H166        H  0.33953857  0.46054379  0.19544251     0.44300
C167        C  0.11453623  0.05914866  0.19160736    -0.04800
C168        C  0.13009613  0.02678871  0.17432552    -0.32200
C169        C  0.18385023  0.05010528  0.16183299     0.37000
C170        C  0.22293841  0.10705031  0.16595708    -0.05100
C171        C  0.20727616  0.13950651  0.18309861    -0.32100
C172        C  0.15351319  0.11617472  0.19561076     0.36900
H173        H  0.10118989  0.98282182  0.17144540     0.17300
O174        O  0.19785401  0.01672786  0.14566320    -0.59600
H175        H  0.23628019  0.18345607  0.18608443     0.17300
O176        O  0.13969787  0.14926811  0.21219468    -0.59700
H177        H  0.12116300  0.16235161  0.19815964     0.44300
H178        H  0.21946675  0.00683862  0.15944662     0.44300
C179        C  0.16348486  0.08392994  0.40338224    -0.04800
C180        C  0.16065186  0.04723294  0.38084681    -0.32200
C181        C  0.19464434  0.06703377  0.35565219     0.37000
C182        C  0.23194454  0.12418504  0.35283503    -0.05100
C183        C  0.23425288  0.16071806  0.37519538    -0.32100
C184        C  0.20010630  0.14119494  0.40014506     0.36900
H185        H  0.13152936  0.00312674  0.38257459     0.17300
O186        O  0.19202306  0.03034159  0.33427113    -0.59600
H187        H  0.26443168  0.20453549  0.37389868     0.17300
O188        O  0.20476537  0.17813275  0.42189182    -0.59700
H189        H  0.18297008  0.19531841  0.41456675     0.44300
H190        H  0.20908839  0.00976839  0.34326690     0.44300
C191        C  0.39702850  0.27497755  0.34995909    -0.04800
C192        C  0.43613379  0.27545707  0.36991443    -0.32200
C193        C  0.45169938  0.30906620  0.39511956     0.37000
C194        C  0.42707805  0.34213802  0.40083474    -0.05100
C195        C  0.38916826  0.34288839  0.38019918    -0.32100
C196        C  0.37423595  0.30964961  0.35479255     0.36900
H197        H  0.45237883  0.24737811  0.36672388     0.17300
O198        O  0.48851569  0.30691671  0.41476871    -0.59600
H199        H  0.37117329  0.36948204  0.38366625     0.17300
O200        O  0.33625922  0.31011525  0.33532181    -0.59700
H201        H  0.29899995  0.28154895  0.34252054     0.44300
H202        H  0.52615630  0.33071862  0.40611790     0.44300
C203        C  0.41770900  0.07451160  0.39905830    -0.04800
C204        C  0.45656767  0.11208053  0.37862085    -0.32200
C205        C  0.43854079  0.12948386  0.35404295     0.37000
C206        C  0.38115185  0.10924536  0.34984133    -0.05100
C207        C  0.34237082  0.07032731  0.36952446    -0.32100
C208        C  0.36008016  0.05224945  0.39375012     0.36900
H209        H  0.50104598  0.12813830  0.38171148     0.17300
O210        O  0.47698565  0.16697140  0.33464001    -0.59600
H211        H  0.29813630  0.05565629  0.36678232     0.17300
O212        O  0.32082189  0.01523724  0.41296000    -0.59700
H213        H  0.30687393  0.97828088  0.40350192     0.44300
H214        H  0.49862283  0.20191843  0.34608648     0.44300
C215        C  0.39530347  0.28182148  0.28254859    -0.04800
C216        C  0.45183573  0.32159581  0.28783687    -0.32200
C217        C  0.47643242  0.37461739  0.27500307     0.37000
C218        C  0.44466104  0.38902297  0.25646451    -0.05100
C219        C  0.38798495  0.34941430  0.25143171    -0.32100
C220        C  0.36356160  0.29623624  0.26399969     0.36900
H221        H  0.47708155  0.31141519  0.30203725     0.17300
O222        O  0.53233233  0.41091773  0.27941738    -0.59600
H223        H  0.36272836  0.35955174  0.23722849     0.17300
O224        O  0.30833828  0.25898484  0.25834222    -0.59700
H225        H  0.28739517  0.26278496  0.27527946     0.44300
H226        H  0.53418839  0.43230157  0.29751141     0.44300
C227        C  0.44563577  0.05869237  0.25645861    -0.04800
C228        C  0.46074463  0.11409199  0.25037792    -0.32200
C229        C  0.43084179  0.13825814  0.26255916     0.37000
C230        C  0.38657610  0.10798489  0.28230687    -0.05100
C231        C  0.37213507  0.05292158  0.28888567    -0.32100
C232        C  0.40127449  0.02833057  0.27616698     0.36900
H233        H  0.49518904  0.13835705  0.23549650     0.17300
O234        O  0.44689265  0.19232199  0.25607864    -0.59600
H235        H  0.33824508  0.02897988  0.30413597     0.17300
O236        O  0.38546849  0.97437348  0.28278634    -0.59700
H237        H  0.35918810  0.95172424  0.26679142     0.44300
H238        H  0.42845814  0.19061611  0.23693461     0.44300
C239        C  0.11316439  0.05658653  0.25760757    -0.04800
C240        C  0.15469311  0.04227327  0.25162296    -0.32200
C241        C  0.20821484  0.07208291  0.26430515     0.37000
C242        C  0.22047439  0.11543828  0.28457540    -0.05100
C243        C  0.17844015  0.12873035  0.29133084    -0.32100
C244        C  0.12525529  0.09979495  0.27798893     0.36900
H245        H  0.14604437  0.00870679  0.23628652     0.17300
O246        O  0.24755496  0.05702708  0.25761280    -0.59600
H247        H  0.18711082  0.16209709  0.30682437     0.17300
O248        O  0.08663817  0.11627033  0.28364078    -0.59700
H249        H  0.06775618  0.09720975  0.30219787     0.44300
H250        H  0.26312640  0.07418326  0.23814895     0.44300
C251        C  0.07454321  0.15750716  0.89889634    -0.04800
C252        C  0.13232571  0.19399130  0.89822865    -0.32200
C253        C  0.15689322  0.22910835  0.87416802     0.37000
C254        C  0.12346989  0.22844668  0.85039657    -0.05100
C255        C  0.06598037  0.19054211  0.85044358    -0.32100
C256        C  0.04139148  0.15509626  0.87445236     0.36900
H257        H  0.15877040  0.19470576  0.91617058     0.17300
O258        O  0.21376916  0.26412638  0.87394767    -0.59600
H259        H  0.03957587  0.19071593  0.83273836     0.17300
O260        O  0.98474209  0.11912846  0.87408950    -0.59700
H261        H  0.96796652  0.13981123  0.88359993     0.44300
H262        H  0.22171237  0.29062803  0.89058913     0.44300
C263        C  0.27578217  0.39245093  0.85031159    -0.04800
C264        C  0.27345452  0.42526721  0.87350457    -0.32200
C265        C  0.30750344  0.43741275  0.89839857     0.37000
C266        C  0.34539229  0.41741843  0.90006799    -0.05100
C267        C  0.34958061  0.38682846  0.87613874    -0.32100
C268        C  0.31497177  0.37413440  0.85136259     0.36900
H269        H  0.24304021  0.43928644  0.87289517     0.17300
O270        O  0.30449654  0.47008774  0.92049605    -0.59600
H271        H  0.37915244  0.37178370  0.87686176     0.17300
O272        O  0.31617049  0.33969677  0.82973804    -0.59700
H273        H  0.35234216  0.36194732  0.81933952     0.44300
H274        H  0.27284448  0.44432995  0.93319429     0.44300
C275        C  0.11312916  0.38122846  0.85251737    -0.04800
C276        C  0.13420897  0.43856684  0.85320501    -0.32200
C277        C  0.12373036  0.46342960  0.87754626     0.37000
C278        C  0.09246624  0.43075015  0.90179862    -0.05100
C279        C  0.07097910  0.37333686  0.90086294    -0.32100
C280        C  0.08077037  0.34844985  0.87635125     0.36900
H281        H  0.16066057  0.46431677  0.83542408     0.17300
O282        O  0.14347038  0.01934944  0.87701598    -0.59600
H283        H  0.04500626  0.34739592  0.91872579     0.17300
O284        O  0.05819355  0.29186446  0.87562293    -0.59700
H285        H  0.07724129  0.28325171  0.89164715     0.44300
H286        H  0.17953121  0.03552502  0.88787882     0.44300
C287        C  0.28197156  0.39552191  0.78247178    -0.04800
C288        C  0.29655950  0.36375386  0.76408939    -0.32200
C289        C  0.35034146  0.38698038  0.75163341     0.37000
C290        C  0.38987978  0.44359665  0.75641693    -0.05100
C291        C  0.37536470  0.47532099  0.77486443    -0.32100
C292        C  0.32187710  0.45183665  0.78777293     0.36900
H293        H  0.26697149  0.32015045  0.76039741     0.17300
O294        O  0.36383618  0.35428500  0.73444472    -0.59600
H295        H  0.40475257  0.51904505  0.77827917     0.17300
O296        O  0.30791780  0.48469280  0.80454938    -0.59700
H297        H  0.33417025  0.49782358  0.82159621     0.44300
H298        H  0.36533739  0.32742463  0.74822060     0.44300
C299        C  0.10879532  0.38811917  0.78458374    -0.04800
C300        C  0.05416357  0.37640840  0.79188976    -0.32200
C301        C  0.02996216  0.40541584  0.77877103     0.37000
C302        C  0.06019058  0.44716710  0.75787376    -0.05100
C303        C  0.11556728  0.46018606  0.75136308    -0.32100
C304        C  0.13950999  0.43076496  0.76419335     0.36900
H305        H  0.02985442  0.34419400  0.80774476     0.17300
O306        O  0.97616293  0.39159475  0.78597282    -0.59600
H307        H  0.13998058  0.49255202  0.73560319     0.17300
O308        O  0.19330238  0.44464439  0.75689931    -0.59700
H309        H  0.21728997  0.47380539  0.77141113     0.44300
H310        H  0.95210240  0.35723559  0.77451403     0.44300
C311        C  0.11682986  0.22093244  0.78279375    -0.04800
C312        C  0.06716507  0.20451390  0.76698573    -0.32200
C313        C  0.03697129  0.15090830  0.75461638     0.37000
C314        C  0.05684805  0.11298473  0.75736921    -0.05100
C315        C  0.10623531  0.12922324  0.77341786    -0.32100
C316        C  0.13628084  0.18272209  0.78591142     0.36900
H317        H  0.05089430  0.23278966  0.76497636     0.17300
O318        O  0.48766529  0.13542746  0.73933643    -0.59600
H319        H  0.12267742  0.10106521  0.77527317     0.17300
O320        O  0.18473016  0.19735035  0.80119496    -0.59700
H321        H  0.21532440  0.21760775  0.78673719     0.44300
H322        H  0.45748401  0.11747201  0.75426429     0.44300
C323        C  0.11165934  0.22763762  0.59746166    -0.04800
C324        C  0.13582145  0.19374242  0.59530376    -0.32200
C325        C  0.12383205  0.15815443  0.57097616     0.37000
C326        C  0.08798154  0.15712767  0.54836601    -0.05100
C327        C  0.06321194  0.19043431  0.55092891    -0.32100
C328        C  0.07421972  0.22494872  0.57547284     0.36900
H329        H  0.16584853  0.19675511  0.61175015     0.17300
O330        O  0.14793431  0.12520156  0.56924079    -0.59600
H331        H  0.03406851  0.18860605  0.53425024     0.17300
O332        O  0.04983926  0.25762659  0.57724069    -0.59700
H333        H  0.01930246  0.23933547  0.59195757     0.44300
H334        H  0.18272366  0.14688501  0.55762561     0.44300
C335        C  0.27207157  0.38391292  0.59665545    -0.04800
C336        C  0.27151153  0.34997305  0.57331794    -0.32200
C337        C  0.30462985  0.37285948  0.54833784     0.37000
C338        C  0.34011895  0.43061199  0.54674230    -0.05100
C339        C  0.34197187  0.46453810  0.57053734    -0.32100
C340        C  0.30799912  0.44157799  0.59539457     0.36900
H341        H  0.24331955  0.30550943  0.57396910     0.17300
O342        O  0.30351830  0.33820370  0.52616080    -0.59600
H343        H  0.36942628  0.50909618  0.56971496     0.17300
O344        O  0.30632144  0.47601482  0.61687321    -0.59700
H345        H  0.34331081  0.49294389  0.62685232     0.44300
H346        H  0.27093660  0.33080865  0.51363323     0.44300
C347        C  0.06500345  0.41076270  0.54985602    -0.04800
C348        C  0.12253531  0.42993523  0.54983770    -0.32200
C349        C  0.14782871  0.41961737  0.57364734     0.37000
C350        C  0.11543754  0.38760784  0.59764415    -0.05100
C351        C  0.05799296  0.36959199  0.59831590    -0.32100
C352        C  0.03269427  0.38146844  0.57472175     0.36900
H353        H  0.14853057  0.45445392  0.53160597     0.17300
O354        O  0.20445354  0.43995916  0.57287717    -0.59600
H355        H  0.03236088  0.34421583  0.61641266     0.17300
O356        O  0.97643693  0.36355703  0.57599151    -0.59700
H357        H  0.95792414  0.32589931  0.56695620     0.44300
H358        H  0.22100184  0.47711235  0.58242202     0.44300
C359        C  0.05997055  0.11318420  0.69151717    -0.04800
C360        C  0.11596087  0.15382249  0.69746047    -0.32200
C361        C  0.14021804  0.20682852  0.68469459     0.37000
C362        C  0.10910112  0.22001752  0.66499671    -0.05100
C363        C  0.05345380  0.17906924  0.65860747    -0.32100
C364        C  0.02902821  0.12618218  0.67157538     0.36900
H365        H  0.14080306  0.14465750  0.71252409     0.17300
O366        O  0.19466308  0.24512978  0.69132208    -0.59600
H367        H  0.02870055  0.18823402  0.64346331     0.17300
O368        O  0.47375294  0.08879640  0.66559919    -0.59700
H369        H  0.47388765  0.06952827  0.64701484     0.44300
H370        H  0.21740337  0.23979730  0.67592294     0.44300
C371        C  0.38999744  0.44744601  0.69059748    -0.04800
C372        C  0.37563183  0.40074782  0.67264685    -0.32200
C373        C  0.32219552  0.37099081  0.65955852     0.37000
C374        C  0.28185529  0.38762862  0.66437764    -0.05100
C375        C  0.29648794  0.43479736  0.68194135    -0.32100
C376        C  0.35023704  0.46508933  0.69468335     0.36900
H377        H  0.40520788  0.38603651  0.66968525     0.17300
O378        O  0.30881727  0.32428989  0.64301086    -0.59600
H379        H  0.26681880  0.44940010  0.68489617     0.17300
O380        O  0.36465478  0.51313093  0.71024391    -0.59700
H381        H  0.33500531  0.50349209  0.72533859     0.44300
H382        H  0.33323486  0.33747855  0.62527392     0.44300
C383        C  0.11336732  0.39226512  0.66540000    -0.04800
C384        C  0.12868642  0.44758882  0.65902174    -0.32200
C385        C  0.10022996  0.47274615  0.67187745     0.37000
C386        C  0.05595989  0.44280519  0.69168938    -0.05100
C387        C  0.03991655  0.38709780  0.69761192    -0.32100
C388        C  0.06885850  0.36218004  0.68505347     0.36900
H389        H  0.16279223  0.47130509  0.64383501     0.17300
O390        O  0.11910562  0.02687826  0.66598677    -0.59600
H391        H  0.50593871  0.36354312  0.71242069     0.17300
O392        O  0.05188814  0.30778400  0.69120154    -0.59700
H393        H  0.57174059  0.30915067  0.70991859     0.44300
H394        H  0.10064209  0.02674023  0.64712610     0.44300
C395        C  0.16601290  0.83176865  0.60465436     0.46100
H396        H  0.16526086  0.83155849  0.57999784    -0.02900
C397        C  0.16774292  0.83198452  0.66216592     0.46200
H398        H  0.16850627  0.83227644  0.68676715    -0.02900
C399        C  0.22466826  0.85928857  0.61735173    -0.16600
C400        C  0.13865947  0.86227832  0.61820848    -0.16300
C401        C  0.13579015  0.77416176  0.61763852    -0.16700
C402        C  0.22718890  0.86021091  0.64769079    -0.16700
C403        C  0.13854669  0.86288182  0.64857128    -0.16200
C404        C  0.13630816  0.77255591  0.64797750    -0.16600
C405        C  0.17012176  0.83314858  0.84321998     0.46100
H406        H  0.17073972  0.83326550  0.86784642    -0.02900
C407        C  0.16884690  0.83364764  0.78576258     0.46200
H408        H  0.16832944  0.83362038  0.76115681    -0.02900
C409        C  0.22776607  0.86639261  0.82991067    -0.16600
C410        C  0.14580963  0.77577116  0.82986764    -0.16300
C411        C  0.13607774  0.85750488  0.83083653    -0.16700
C412        C  0.22871676  0.86703397  0.79955457    -0.16700
C413        C  0.14345078  0.77442019  0.79951276    -0.16200
C414        C  0.13556342  0.85976982  0.80045388    -0.16600
C415        C  0.50251909  0.50125911  0.69494190     0.46100
H416        H  0.00193162  0.50036099  0.67091774    -0.02900
C417        C  0.50220143  0.50183280  0.75289370     0.46200
H418        H  0.50197009  0.50231816  0.77750227    -0.02900
C419        C  0.03226316  0.97151704  0.70912731    -0.16600
C420        C  0.03181761  0.56002271  0.70920575    -0.16300
C421        C  0.44281799  0.97193930  0.70838769    -0.16700
C422        C  0.03303627  0.97251186  0.73964398    -0.16700
C423        C  0.03125522  0.56031293  0.73966820    -0.16200
C424        C  0.44279211  0.97097888  0.73884605    -0.16600
C425        C  0.33491173  0.66910876  0.28533463     0.46100
H426        H  0.33392580  0.66819136  0.26074108    -0.02900
C427        C  0.33728858  0.67120449  0.34283178     0.46200
H428        H  0.33869165  0.67235394  0.36749859    -0.02900
C429        C  0.27572925  0.64346454  0.30008897    -0.15400
C430        C  0.36181527  0.63635808  0.29923695    -0.16300
C431        C  0.36881202  0.72883452  0.29882904    -0.16700
C432        C  0.27855835  0.64586254  0.33049716    -0.16700
C433        C  0.36153132  0.63760825  0.32959610    -0.16200
C434        C  0.36976888  0.72804814  0.32911874    -0.16600
C435        C  0.33638425  0.67047966  0.16334194     0.46100
H436        H  0.33638401  0.67086452  0.18795465    -0.02900
C437        C  0.33655359  0.66995336  0.10574259     0.46200
H438        H  0.33660138  0.66955983  0.08107387    -0.02900
C439        C  0.27687046  0.63609264  0.14925629    -0.16600
C440        C  0.36109148  0.72929276  0.14919152    -0.16300
C441        C  0.37118819  0.64548028  0.14933783    -0.16700
C442        C  0.27861514  0.63563294  0.11892160    -0.16700
C443        C  0.35936677  0.72754154  0.11882238    -0.16200
C444        C  0.37166224  0.64734591  0.11901210    -0.16600
C445        C  0.00149349  0.50170098  0.19497766     0.46100
H446        H  0.00156162  0.50152996  0.17036600    -0.02900
C447        C  0.00120366  0.50178532  0.25295804     0.46200
H448        H  0.00106105  0.50186494  0.27756173    -0.02900
C449        C  0.47096278  0.52973490  0.20864958    -0.16600
C450        C  0.47335238  0.94323289  0.20837662    -0.16300
C451        C  0.06078975  0.53235294  0.20883145    -0.16700
C452        C  0.47134873  0.53037717  0.23912973    -0.16700
C453        C  0.47217703  0.94280069  0.23881403    -0.16200
C454        C  0.06067402  0.53182312  0.23931720    -0.16600
Zn455      Zn  0.00292284  0.50155664  0.93409649     1.49700
Zn456      Zn  0.04331973  0.58044492  0.98585100     1.49400
Zn457      Zn  0.42603782  0.96634286  0.98660256     1.49100
Zn458      Zn  0.03947245  0.96212195  0.98712483     1.49500
O459        O  0.00307898  0.50304620  0.97543867    -1.83400
O460        O  0.01190757  0.56927759  0.91650330    -0.74100
O461        O  0.49467143  0.59748819  0.01155476    -0.73900
O462        O  0.37564495  0.94526662  0.95018400    -0.73400
O463        O  0.07250049  0.62895098  0.94895253    -0.74100
O464        O  0.43394418  0.94068574  0.91785507    -0.73700
O465        O  0.41551032  0.51650363  0.01409675    -0.74300
O466        O  0.49038529  0.90260860  0.01488992    -0.73700
O467        O  0.10420968  0.59281255  0.01393438    -0.74400
O468        O  0.40936376  0.90226401  0.01330758    -0.73800
O469        O  0.10464025  0.51276970  0.01302607    -0.74300
O470        O  0.06140976  0.93245731  0.95091864    -0.74200
O471        O  0.06379065  0.99249808  0.91810964    -0.74000
C472        C  0.05106340  0.61735693  0.92299877     0.77800
C473        C  0.44668353  0.56622162  0.02288953     0.78300
C474        C  0.38614074  0.93367835  0.92434398     0.77300
C475        C  0.44073154  0.88512575  0.02418859     0.77600
C476        C  0.12201271  0.56138737  0.02347014     0.78800
C477        C  0.07293814  0.95372831  0.92507812     0.77800
Zn478      Zn  0.04125154  0.96353479  0.46340173     1.49700
Zn479      Zn  0.42314357  0.96001863  0.46118515     1.49400
Zn480      Zn  0.99767642  0.49965144  0.51426808     1.49100
Zn481      Zn  0.03708551  0.57596402  0.46176521     1.49500
O482        O  0.99982299  0.49972677  0.47283460    -1.83400
O483        O  0.49380096  0.89928634  0.43635038    -0.74100
O484        O  0.37208451  0.93248831  0.49708548    -0.73900
O485        O  0.00213378  0.93794609  0.53244247    -0.73400
O486        O  0.41256876  0.89852522  0.43449151    -0.74100
O487        O  0.06527882  0.94044287  0.50091248    -0.73700
O488        O  0.42912515  0.99489505  0.52969327    -0.74300
O489        O  0.05869964  0.62547100  0.49841609    -0.73700
O490        O  0.40676130  0.50803089  0.43481860    -0.74400
O491        O  0.06025971  0.56669023  0.53085502    -0.73800
O492        O  0.48753528  0.58770909  0.43394401    -0.74300
O493        O  0.10318303  0.59166394  0.43692601    -0.74200
O494        O  0.10450349  0.51210685  0.43576845    -0.74000
C495        C  0.44500142  0.88101091  0.42561390     0.77800
C496        C  0.38159873  0.95465706  0.52284728     0.78300
C497        C  0.04175914  0.92878180  0.52635206     0.77300
C498        C  0.07012063  0.61481605  0.52410967     0.77600
C499        C  0.43791223  0.55642101  0.42448993     0.78800
C500        C  0.12252160  0.56156621  0.42687766     0.77800
C501        C  0.23071017  0.60829639  0.09857490    -0.04800
C502        C  0.19378155  0.62892825  0.09585915    -0.32200
C503        C  0.15914308  0.61536001  0.07096295     0.37000
C504        C  0.16054972  0.57962938  0.04886130    -0.05100
C505        C  0.19501348  0.55635236  0.05280754    -0.32100
C506        C  0.22987420  0.57049035  0.07739830     0.36900
H507        H  0.19434411  0.65826094  0.11206298     0.17300
O508        O  0.12341084  0.63630341  0.06876389    -0.59600
H509        H  0.19565954  0.52774231  0.03652271     0.17300
O510        O  0.26486244  0.54888233  0.07992730    -0.59700
H511        H  0.24337809  0.51418494  0.09131227     0.44300
H512        H  0.14664293  0.67447377  0.06108014     0.44300
C513        C  0.37928434  0.77503160  0.09843082    -0.04800
C514        C  0.43660710  0.81273204  0.09601238    -0.32200
C515        C  0.45730498  0.84850619  0.07176572     0.37000
C516        C  0.42023267  0.84692543  0.04960517    -0.05100
C517        C  0.36260455  0.81151865  0.05318847    -0.32100
C518        C  0.34217195  0.77567382  0.07724901     0.36900
H519        H  0.46563325  0.81236941  0.11206124     0.17300
O520        O  0.51383518  0.88442578  0.06985642    -0.59600
H521        H  0.33329323  0.81061909  0.03690968     0.17300
O522        O  0.28580581  0.73964604  0.07922802    -0.59700
H523        H  0.27052867  0.76020516  0.09029285     0.44300
H524        H  0.52001973  0.91898854  0.07986550     0.44300
C525        C  0.39961507  0.62721843  0.09871508    -0.04800
C526        C  0.37768419  0.57016432  0.09496298    -0.32200
C527        C  0.39114478  0.54957342  0.06979470     0.37000
C528        C  0.42882423  0.58668235  0.04856680    -0.05100
C529        C  0.45362116  0.64396881  0.05363550    -0.32100
C530        C  0.43892201  0.66424136  0.07838030     0.36900
H531        H  0.34712024  0.54144283  0.11049871     0.17300
O532        O  0.36760823  0.49319470  0.06637687    -0.59600
H533        H  0.48354501  0.67319662  0.03804919     0.17300
O534        O  0.46116854  0.72039715  0.08180165    -0.59700
H535        H  0.99598271  0.73332383  0.09339882     0.44300
H536        H  0.33048317  0.48076470  0.05719481     0.44300
C537        C  0.38780450  0.78289747  0.16577403    -0.04800
C538        C  0.43853474  0.79998778  0.18061978    -0.32200
C539        C  0.46890265  0.85369446  0.19272905     0.37000
C540        C  0.44819480  0.89096722  0.19053088    -0.05100
C541        C  0.39763742  0.87398243  0.17556379    -0.32100
C542        C  0.36743525  0.82036945  0.16324332     0.36900
H543        H  0.45528745  0.77205803  0.18220372     0.17300
O544        O  0.51810261  0.86903693  0.20740705    -0.59600
H545        H  0.38040442  0.90156040  0.17448085     0.17300
O546        O  0.31691687  0.80397207  0.14972703    -0.59700
H547        H  0.32557969  0.82808029  0.13215630     0.44300
H548        H  0.54719434  0.88215576  0.19176762     0.44300
C549        C  0.39772055  0.61788283  0.16587090    -0.04800
C550        C  0.36402899  0.56961840  0.18206340    -0.32200
C551        C  0.38656096  0.53841655  0.19425456     0.37000
C552        C  0.44405174  0.55575838  0.19094525    -0.05100
C553        C  0.47760463  0.60368887  0.17449103    -0.32100
C554        C  0.45506276  0.63482524  0.16224824     0.36900
H555        H  0.31975448  0.55526188  0.18461231     0.17300
O556        O  0.35248866  0.99258619  0.20958257    -0.59600
H557        H  0.02146172  0.61854535  0.17234647     0.17300
O558        O  0.48961516  0.68196714  0.14679194    -0.59700
H559        H  0.99894902  0.71318509  0.16145244     0.44300
H560        H  0.33898495  0.96154355  0.19508450     0.44300
C561        C  0.11388568  0.56032277  0.19120768    -0.04800
C562        C  0.13006109  0.52812593  0.17421164    -0.32200
C563        C  0.18396962  0.55172729  0.16187146     0.37000
C564        C  0.22263761  0.60881741  0.16581324    -0.05100
C565        C  0.20624230  0.64124695  0.18249121    -0.32100
C566        C  0.15234543  0.61758864  0.19493032     0.36900
H567        H  0.10157974  0.48403157  0.17152262     0.17300
O568        O  0.19859405  0.51845739  0.14604689    -0.59600
H569        H  0.23486804  0.68532676  0.18528198     0.17300
O570        O  0.13805947  0.65055848  0.21131291    -0.59700
H571        H  0.11509446  0.65929365  0.19787393     0.44300
H572        H  0.22012526  0.50892538  0.16008650     0.44300
C573        C  0.16302626  0.58316323  0.40231172    -0.04800
C574        C  0.16062574  0.54670918  0.37973623    -0.32200
C575        C  0.19481252  0.56686389  0.35461430     0.37000
C576        C  0.23193003  0.62410756  0.35192605    -0.05100
C577        C  0.23375920  0.66036336  0.37430083    -0.32100
C578        C  0.19945697  0.64051221  0.39917481     0.36900
H579        H  0.13171841  0.50254253  0.38138361     0.17300
O580        O  0.19261619  0.53039196  0.33322005    -0.59600
H581        H  0.26374157  0.70424360  0.37307966     0.17300
O582        O  0.20381010  0.67724970  0.42096774    -0.59700
H583        H  0.18210181  0.69448890  0.41358629     0.44300
H584        H  0.21232580  0.51198150  0.34173657     0.44300
C585        C  0.39706441  0.77568040  0.34922196    -0.04800
C586        C  0.43773194  0.77752680  0.36847931    -0.32200
C587        C  0.45359249  0.81117263  0.39367867     0.37000
C588        C  0.42755077  0.84272431  0.40015326    -0.05100
C589        C  0.38814107  0.84222403  0.38012531    -0.32100
C590        C  0.37294747  0.80898312  0.35468174     0.36900
H591        H  0.45513603  0.75054493  0.36472533     0.17300
O592        O  0.49229090  0.81060134  0.41255416    -0.59600
H593        H  0.36908249  0.86774218  0.38410416     0.17300
O594        O  0.33356963  0.80804644  0.33571520    -0.59700
H595        H  0.29717855  0.78691484  0.34603753     0.44300
H596        H  0.52920663  0.83572917  0.40349751     0.44300
C597        C  0.41767043  0.57515917  0.39935425    -0.04800
C598        C  0.45634877  0.61090701  0.37826640    -0.32200
C599        C  0.43837213  0.62836219  0.35369019     0.37000
C600        C  0.38116390  0.60987326  0.35006329    -0.05100
C601        C  0.34250499  0.57286490  0.37051774    -0.32100
C602        C  0.36017534  0.55493884  0.39483515     0.36900
H603        H  0.50066906  0.62551480  0.38086245     0.17300
O604        O  0.47683329  0.66441971  0.33381744    -0.59600
H605        H  0.29848830  0.55968595  0.36832088     0.17300
O606        O  0.32122211  0.52034179  0.41494792    -0.59700
H607        H  0.30416475  0.48277348  0.40584968     0.44300
H608        H  0.49765845  0.70038600  0.34448203     0.44300
C609        C  0.39600059  0.78219638  0.28189562    -0.04800
C610        C  0.45217283  0.82250389  0.28767219    -0.32200
C611        C  0.47654352  0.87568394  0.27503053     0.37000
C612        C  0.44497972  0.88967565  0.25609708    -0.05100
C613        C  0.38865727  0.84952042  0.25056012    -0.32100
C614        C  0.36447075  0.79619652  0.26294087     0.36900
H615        H  0.47730553  0.81267392  0.30216515     0.17300
O616        O  0.53205626  0.91266007  0.28010056    -0.59600
H617        H  0.36348388  0.85935215  0.23611618     0.17300
O618        O  0.30966848  0.75839107  0.25669344    -0.59700
H619        H  0.28775809  0.76207139  0.27316732     0.44300
H620        H  0.53298209  0.93133102  0.29909700     0.44300
C621        C  0.44623151  0.55840016  0.25673253    -0.04800
C622        C  0.46190696  0.61396287  0.25073856    -0.32200
C623        C  0.43223507  0.63843612  0.26284269     0.37000
C624        C  0.38757820  0.60826305  0.28239999    -0.05100
C625        C  0.37269486  0.55308205  0.28897598    -0.32100
C626        C  0.40161422  0.52819209  0.27632871     0.36900
H627        H  0.49657181  0.63809208  0.23595216     0.17300
O628        O  0.44886430  0.69267775  0.25647810    -0.59600
H629        H  0.33859347  0.52927467  0.30413869     0.17300
O630        O  0.38533156  0.47409980  0.28290097    -0.59700
H631        H  0.36049060  0.45176530  0.26636181     0.44300
H632        H  0.43106214  0.69137720  0.23718260     0.44300
C633        C  0.11369518  0.55758632  0.25708015    -0.04800
C634        C  0.15499689  0.54301002  0.25095638    -0.32200
C635        C  0.20867022  0.57265758  0.26349942     0.37000
C636        C  0.22133128  0.61618901  0.28370998    -0.05100
C637        C  0.17965872  0.63001963  0.29041963    -0.32100
C638        C  0.12632275  0.60120707  0.27725103     0.36900
H639        H  0.14597385  0.50922881  0.23570372     0.17300
O640        O  0.24769349  0.55718217  0.25680269    -0.59600
H641        H  0.18868391  0.66360754  0.30582322     0.17300
O642        O  0.08801985  0.61808103  0.28292053    -0.59700
H643        H  0.06889135  0.59889433  0.30140558     0.44300
H644        H  0.26340109  0.57434350  0.23735804     0.44300
C645        C  0.07448542  0.65774928  0.89887143    -0.04800
C646        C  0.13218531  0.69453095  0.89834457    -0.32200
C647        C  0.15682029  0.72940560  0.87421626     0.37000
C648        C  0.12351444  0.72828231  0.85025824    -0.05100
C649        C  0.06613121  0.69002677  0.85016317    -0.32100
C650        C  0.04149370  0.65475857  0.87422561     0.36900
H651        H  0.15853198  0.69564357  0.91644283     0.17300
O652        O  0.21364366  0.76469198  0.87413062    -0.59600
H653        H  0.03979465  0.68980098  0.83231088     0.17300
O654        O  0.98494353  0.61835238  0.87370832    -0.59700
H655        H  0.96760526  0.63939113  0.88212185     0.44300
H656        H  0.22133649  0.79097870  0.89085415     0.44300
C657        C  0.27558201  0.89162690  0.85044135    -0.04800
C658        C  0.27320276  0.92426936  0.87370993    -0.32200
C659        C  0.30711179  0.93615613  0.89863461     0.37000
C660        C  0.34500758  0.91616879  0.90025181    -0.05100
C661        C  0.34912960  0.88556828  0.87631112    -0.32100
C662        C  0.31457880  0.87304949  0.85151023     0.36900
H663        H  0.24288141  0.93841019  0.87311557     0.17300
O664        O  0.30409333  0.96873784  0.92078291    -0.59600
H665        H  0.37867407  0.87048858  0.87702761     0.17300
O666        O  0.31562908  0.83854492  0.82987810    -0.59700
H667        H  0.35185883  0.86065964  0.81951016     0.44300
H668        H  0.27224299  0.94297398  0.93337097     0.44300
C669        C  0.11291066  0.88102818  0.85220310    -0.04800
C670        C  0.13373953  0.93832854  0.85285526    -0.32200
C671        C  0.12301191  0.96309783  0.87714421     0.37000
C672        C  0.09174283  0.93035380  0.90139253    -0.05100
C673        C  0.07038481  0.87296074  0.90044559    -0.32100
C674        C  0.08043554  0.84817071  0.87598546     0.36900
H675        H  0.16022968  0.96413101  0.83509953     0.17300
O676        O  0.14428087  0.51969613  0.87745875    -0.59600
H677        H  0.04444029  0.84696090  0.91829831     0.17300
O678        O  0.05809225  0.79161022  0.87528372    -0.59700
H679        H  0.07704694  0.78310598  0.89140466     0.44300
H680        H  0.18230930  0.53606231  0.88617146     0.44300
C681        C  0.28216813  0.89493119  0.78257334    -0.04800
C682        C  0.29655097  0.86309804  0.76411415    -0.32200
C683        C  0.35025541  0.88624955  0.75158401     0.37000
C684        C  0.38987760  0.94282574  0.75640517    -0.05100
C685        C  0.37559479  0.97455114  0.77498508    -0.32100
C686        C  0.32218057  0.95115858  0.78793366     0.36900
H687        H  0.26683337  0.81955129  0.76036665     0.17300
O688        O  0.36356022  0.85355506  0.73426873    -0.59600
H689        H  0.40507520  0.01824512  0.77842861     0.17300
O690        O  0.30835175  0.98405572  0.80475935    -0.59700
H691        H  0.33449635  0.99692043  0.82185167     0.44300
H692        H  0.36531452  0.82675960  0.74799015     0.44300
C693        C  0.10915992  0.88803440  0.78426189    -0.04800
C694        C  0.05459681  0.87650301  0.79159081    -0.32200
C695        C  0.03051939  0.90563079  0.77848953     0.37000
C696        C  0.06079516  0.94727894  0.75755648    -0.05100
C697        C  0.11608254  0.96005226  0.75097669    -0.32100
C698        C  0.13989814  0.93050760  0.76379413     0.36900
H699        H  0.03025652  0.84437586  0.80748139     0.17300
O700        O  0.97684403  0.89213627  0.78579597    -0.59600
H701        H  0.14052033  0.99231925  0.73517384     0.17300
O702        O  0.19356617  0.94406317  0.75640032    -0.59700
H703        H  0.21784991  0.97416468  0.77039892     0.44300
H704        H  0.95255937  0.85669927  0.77524640     0.44300
C705        C  0.11697076  0.72099488  0.78259582    -0.04800
C706        C  0.06709181  0.70447857  0.76698894    -0.32200
C707        C  0.03688772  0.65089338  0.75464840     0.37000
C708        C  0.05692574  0.61308923  0.75728454    -0.05100
C709        C  0.10667999  0.62952211  0.77301281    -0.32100
C710        C  0.13676608  0.68303056  0.78546106     0.36900
H711        H  0.05066404  0.73265058  0.76513962     0.17300
O712        O  0.48875139  0.63664525  0.73856579    -0.59600
H713        H  0.12326712  0.60146124  0.77470698     0.17300
O714        O  0.18549541  0.69785043  0.80051232    -0.59700
H715        H  0.21594661  0.72027054  0.78635280     0.44300
H716        H  0.45794586  0.61595800  0.75284342     0.44300
C717        C  0.11219753  0.72686863  0.59693944    -0.04800
C718        C  0.13588344  0.69249399  0.59512259    -0.32200
C719        C  0.12423607  0.65692392  0.57079179     0.37000
C720        C  0.08925894  0.65643328  0.54782755    -0.05100
C721        C  0.06500025  0.69021449  0.55004349    -0.32100
C722        C  0.07557336  0.72461382  0.57458212     0.36900
H723        H  0.16528129  0.69508015  0.61184928     0.17300
O724        O  0.14778806  0.62345522  0.56941533    -0.59600
H725        H  0.03645236  0.68879145  0.53311045     0.17300
O726        O  0.05141799  0.75749146  0.57605048    -0.59700
H727        H  0.01701158  0.73625963  0.58801069     0.44300
H728        H  0.18364090  0.64542704  0.55870212     0.44300
C729        C  0.27166597  0.88402840  0.59639221    -0.04800
C730        C  0.27168929  0.85002437  0.57325719    -0.32200
C731        C  0.30506843  0.87286240  0.54835384     0.37000
C732        C  0.33988753  0.93067854  0.54652777    -0.05100
C733        C  0.34109872  0.96472945  0.57010799    -0.32100
C734        C  0.30714561  0.94175398  0.59498730     0.36900
H735        H  0.24396696  0.80548860  0.57406873     0.17300
O736        O  0.30516356  0.83812767  0.52656557    -0.59600
H737        H  0.36819957  0.00933087  0.56914823     0.17300
O738        O  0.30528800  0.97614404  0.61643732    -0.59700
H739        H  0.34206543  0.99277669  0.62662008     0.44300
H740        H  0.27182707  0.82867803  0.51419186     0.44300
C741        C  0.06448547  0.91030237  0.55034690    -0.04800
C742        C  0.12241669  0.93200678  0.55137481    -0.32200
C743        C  0.14714345  0.92100359  0.57519205     0.37000
C744        C  0.11393523  0.88608295  0.59810999    -0.05100
C745        C  0.05598555  0.86555927  0.59781677    -0.32100
C746        C  0.03110758  0.87784066  0.57416605     0.36900
H747        H  0.14901782  0.95892785  0.53397069     0.17300
O748        O  0.20409778  0.94366320  0.57551344    -0.59600
H749        H  0.02984777  0.83794653  0.61511978     0.17300
O750        O  0.97428185  0.85708789  0.57425434    -0.59700
H751        H  0.95840882  0.82112781  0.56347603     0.44300
H752        H  0.21829443  0.97906380  0.58668530     0.44300
C753        C  0.05942512  0.61253220  0.69149543    -0.04800
C754        C  0.11596903  0.65225626  0.69676043    -0.32200
C755        C  0.14073746  0.70503010  0.68370029     0.37000
C756        C  0.10941647  0.71890082  0.66453829    -0.05100
C757        C  0.05319967  0.67881289  0.65878672    -0.32100
C758        C  0.02829179  0.62615288  0.67202816     0.36900
H759        H  0.14085678  0.64255035  0.71149783     0.17300
O760        O  0.19582585  0.74246089  0.68951306    -0.59600
H761        H  0.02837384  0.68855249  0.64400548     0.17300
O762        O  0.47414785  0.58853777  0.66520896    -0.59700
H763        H  0.47457057  0.56930005  0.64666911     0.44300
H764        H  0.21740804  0.73417230  0.67468209     0.44300
C765        C  0.38970611  0.94685707  0.69054064    -0.04800
C766        C  0.37553417  0.90041224  0.67239906    -0.32200
C767        C  0.32215623  0.87069878  0.65921428     0.37000
C768        C  0.28168250  0.88713553  0.66410929    -0.05100
C769        C  0.29610330  0.93402425  0.68186832    -0.32100
C770        C  0.34975338  0.96423058  0.69474150     0.36900
H771        H  0.40522162  0.88586289  0.66934979     0.17300
O772        O  0.30895045  0.82419997  0.64251963    -0.59600
H773        H  0.26630175  0.94843433  0.68492890     0.17300
O774        O  0.36386877  0.01193557  0.71056267    -0.59700
H775        H  0.33409391  0.00188718  0.72562928     0.44300
H776        H  0.33339776  0.83763783  0.62480260     0.44300
C777        C  0.11310628  0.89102270  0.66557508    -0.04800
C778        C  0.12900483  0.94646940  0.65912987    -0.32200
C779        C  0.10085065  0.97209476  0.67177991     0.37000
C780        C  0.05628169  0.94252833  0.69146949    -0.05100
C781        C  0.03972902  0.88671212  0.69752246    -0.32100
C782        C  0.06842198  0.86132866  0.68518109     0.36900
H783        H  0.16331740  0.96991419  0.64400869     0.17300
O784        O  0.11790003  0.52744156  0.66615898    -0.59600
H785        H  0.50439984  0.86291527  0.71121878     0.17300
O786        O  0.05113060  0.80693653  0.69153339    -0.59700
H787        H  0.56908428  0.80722639  0.70859670     0.44300
H788        H  0.09935696  0.52716571  0.64730161     0.44300
C789        C  0.66705293  0.33248552  0.60464115     0.46100
H790        H  0.66643607  0.33199116  0.57998573    -0.02900
C791        C  0.66810663  0.33282770  0.66214381     0.46200
H792        H  0.66862371  0.33319486  0.68674627    -0.02900
C793        C  0.72555833  0.35966768  0.61750511    -0.16600
C794        C  0.64004950  0.36354735  0.61795166    -0.16300
C795        C  0.63634551  0.27495682  0.61766706    -0.16700
C796        C  0.72769167  0.36069110  0.64786164    -0.16700
C797        C  0.63946747  0.36408421  0.64833183    -0.16200
C798        C  0.63647352  0.27336072  0.64800399    -0.16600
C799        C  0.66915605  0.33243688  0.84316808     0.46100
H800        H  0.66961324  0.33227681  0.86780193    -0.02900
C801        C  0.66818615  0.33343006  0.78570014     0.46200
H802        H  0.66783119  0.33361355  0.76109546    -0.02900
C803        C  0.72687609  0.36607949  0.82997146    -0.16600
C804        C  0.64514635  0.27520513  0.82964928    -0.16300
C805        C  0.63494727  0.35665301  0.83079676    -0.16700
C806        C  0.72796606  0.36698602  0.79961587    -0.16700
C807        C  0.64292097  0.27406382  0.79930221    -0.16200
C808        C  0.63462308  0.35924321  0.80041336    -0.16600
C809        C  0.00281124  0.00126328  0.69521929     0.46100
H810        H  0.50239441  0.00076016  0.67026655    -0.02900
C811        C  0.00247887  0.00160847  0.75317059     0.46200
H812        H  0.00220468  0.00195900  0.77777978    -0.02900
C813        C  0.53189117  0.47149416  0.70888973    -0.16600
C814        C  0.53200526  0.06009936  0.70875060    -0.16300
C815        C  0.94261244  0.47210095  0.70911203    -0.16700
C816        C  0.53259475  0.47248801  0.73941627    -0.16700
C817        C  0.53119130  0.06000902  0.73922264    -0.16200
C818        C  0.94266043  0.47146896  0.73957002    -0.16600
C819        C  0.83477903  0.16920990  0.28539205     0.46100
H820        H  0.83375666  0.16839585  0.26079919    -0.02900
C821        C  0.83713009  0.17110021  0.34287858     0.46200
H822        H  0.83839594  0.17221597  0.36754495    -0.02900
C823        C  0.77562211  0.14353910  0.30013135    -0.15400
C824        C  0.86161877  0.13636794  0.29922327    -0.16300
C825        C  0.86876129  0.22885519  0.29895130    -0.16700
C826        C  0.77844550  0.14591959  0.33051742    -0.16700
C827        C  0.86132689  0.13742744  0.32961275    -0.16200
C828        C  0.86975423  0.22799203  0.32923254    -0.16600
C829        C  0.83636318  0.17024750  0.16317426     0.46100
H830        H  0.83662590  0.17045875  0.18778629    -0.02900
C831        C  0.83583582  0.17004829  0.10556165     0.46200
H832        H  0.83553409  0.16972358  0.08089306    -0.02900
C833        C  0.77680215  0.13551096  0.14925837    -0.16600
C834        C  0.86042513  0.22908387  0.14918051    -0.16300
C835        C  0.87137543  0.14578784  0.14888446    -0.16700
C836        C  0.77813280  0.13525332  0.11893291    -0.16700
C837        C  0.85836285  0.22753012  0.11880859    -0.16200
C838        C  0.87152608  0.14783169  0.11856512    -0.16600
C839        C  0.50212890  0.00200220  0.19483247     0.46100
H840        H  0.50256859  0.00197425  0.17022100    -0.02900
C841        C  0.50102721  0.00170064  0.25280512     0.46200
H842        H  0.50054299  0.00162705  0.27740639    -0.02900
C843        C  0.97154474  0.03051258  0.20823452    -0.16600
C844        C  0.97293695  0.44299488  0.20861482    -0.16300
C845        C  0.56115416  0.03239970  0.20892107    -0.16700
C846        C  0.97142527  0.03112059  0.23871719    -0.16700
C847        C  0.97231426  0.44279259  0.23905125    -0.16200
C848        C  0.56066770  0.03162523  0.23940099    -0.16600
Zn849      Zn  0.50275652  0.00144676  0.93394809     1.49700
Zn850      Zn  0.54353038  0.08015202  0.98555239     1.49400
Zn851      Zn  0.92585742  0.46645639  0.98664661     1.49100
Zn852      Zn  0.53963990  0.46265197  0.98724238     1.49500
O853        O  0.50308897  0.00272567  0.97528933    -1.83400
O854        O  0.51052438  0.06900320  0.91662880    -0.74100
O855        O  0.99517330  0.09753556  0.01152791    -0.73900
O856        O  0.87558616  0.44623336  0.95012416    -0.73400
O857        O  0.57318764  0.12810919  0.94847506    -0.74100
O858        O  0.93382554  0.44155796  0.91779437    -0.73700
O859        O  0.91535887  0.01703028  0.01353202    -0.74300
O860        O  0.99060094  0.40376128  0.01554633    -0.73700
O861        O  0.60387381  0.09203558  0.01393803    -0.74400
O862        O  0.90889333  0.40183633  0.01301240    -0.73800
O863        O  0.60398579  0.01184616  0.01307285    -0.74300
O864        O  0.56134622  0.43202301  0.95129227    -0.74200
O865        O  0.56298626  0.49110565  0.91807808    -0.74000
C866        C  0.55081093  0.11670627  0.92273767     0.77800
C867        C  0.94672769  0.06663101  0.02246527     0.78300
C868        C  0.88609348  0.43478426  0.92424633     0.77300
C869        C  0.94056040  0.38550363  0.02438887     0.77600
C870        C  0.62130480  0.06038828  0.02361847     0.78800
C871        C  0.57251529  0.45271492  0.92532099     0.77800
Zn872      Zn  0.54101170  0.46327598  0.46303444     1.49700
Zn873      Zn  0.92305657  0.46062531  0.46106174     1.49400
Zn874      Zn  0.49790320  0.99953703  0.51445515     1.49100
Zn875      Zn  0.53665803  0.07596218  0.46194514     1.49500
O876        O  0.49992014  0.99967332  0.47300269    -1.83400
O877        O  0.99288423  0.39865835  0.43671412    -0.74100
O878        O  0.87218165  0.43303033  0.49703357    -0.73900
O879        O  0.50208282  0.43736542  0.53181413    -0.73400
O880        O  0.91229882  0.39916849  0.43426196    -0.74100
O881        O  0.56605372  0.44116238  0.50053043    -0.73700
O882        O  0.92925540  0.49592630  0.52940312    -0.74300
O883        O  0.55829935  0.12560198  0.49859653    -0.73700
O884        O  0.90755918  0.00848785  0.43472128    -0.74400
O885        O  0.56002778  0.06703095  0.53114317    -0.73800
O886        O  0.98842651  0.08808136  0.43369202    -0.74300
O887        O  0.60267826  0.09210450  0.43686619    -0.74200
O888        O  0.60474625  0.01292620  0.43577979    -0.74000
C889        C  0.94434734  0.38094972  0.42572757     0.77800
C890        C  0.88179421  0.45539323  0.52274859     0.78300
C891        C  0.54243317  0.42923940  0.52594234     0.77300
C892        C  0.56983361  0.11512007  0.52430764     0.77600
C893        C  0.93878434  0.05675860  0.42428802     0.78800
C894        C  0.62229048  0.06224616  0.42680290     0.77800
C895        C  0.72984750  0.10776760  0.09885867    -0.04800
C896        C  0.69424410  0.12980362  0.09551682    -0.32200
C897        C  0.65955918  0.11593277  0.07063154     0.37000
C898        C  0.65945422  0.07836813  0.04921007    -0.05100
C899        C  0.69225315  0.05344737  0.05396575    -0.32100
C900        C  0.72729637  0.06800629  0.07852751     0.36900
H901        H  0.69595937  0.16042281  0.11119706     0.17300
O902        O  0.62541816  0.13858634  0.06774536    -0.59600
H903        H  0.69163691  0.02333880  0.03829372     0.17300
O904        O  0.76083175  0.04489571  0.08184619    -0.59700
H905        H  0.73660382  0.00818785  0.09095517     0.44300
H906        H  0.64961653  0.17601849  0.05937301     0.44300
C907        C  0.87844164  0.27524276  0.09857868    -0.04800
C908        C  0.93586179  0.31240380  0.09607693    -0.32200
C909        C  0.95680233  0.34821929  0.07186229     0.37000
C910        C  0.91985188  0.34727149  0.04980885    -0.05100
C911        C  0.86214043  0.31237669  0.05347900    -0.32100
C912        C  0.84147409  0.27647337  0.07751759     0.36900
H913        H  0.96477861  0.31152523  0.11201721     0.17300
O914        O  0.01346068  0.38341863  0.06983191    -0.59600
H915        H  0.83290156  0.31189603  0.03728780     0.17300
O916        O  0.78502533  0.24091848  0.07957734    -0.59700
H917        H  0.76961940  0.26296000  0.08892895     0.44300
H918        H  0.02079930  0.41690786  0.08141831     0.44300
C919        C  0.89920046  0.12767267  0.09810858    -0.04800
C920        C  0.87662659  0.07060647  0.09408297    -0.32200
C921        C  0.89008696  0.05007014  0.06890731     0.37000
C922        C  0.92851747  0.08721584  0.04795112    -0.05100
C923        C  0.95378045  0.14449818  0.05322631    -0.32100
C924        C  0.93895843  0.16474194  0.07796099     0.36900
H925        H  0.84574831  0.04186331  0.10948840     0.17300
O926        O  0.86592768  0.99367495  0.06526767    -0.59600
H927        H  0.98422945  0.17373630  0.03783701     0.17300
O928        O  0.96169269  0.22091506  0.08160474    -0.59700
H929        H  0.49538098  0.23384460  0.09348505     0.44300
H930        H  0.82886464  0.98178235  0.05614254     0.44300
C931        C  0.88708333  0.28255150  0.16591717    -0.04800
C932        C  0.93827527  0.30000405  0.18034381    -0.32200
C933        C  0.96846662  0.35360718  0.19259048     0.37000
C934        C  0.94726174  0.39053152  0.19087993    -0.05100
C935        C  0.89609112  0.37309414  0.17644241    -0.32100
C936        C  0.86599771  0.31952162  0.16402737     0.36900
H937        H  0.95550275  0.27242799  0.18149439     0.17300
O938        O  0.01808310  0.36918756  0.20686940    -0.59600
H939        H  0.87841483  0.40032153  0.17578257     0.17300
O940        O  0.81496395  0.30269144  0.15102430    -0.59700
H941        H  0.82300164  0.32603753  0.13318159     0.44300
H942        H  0.04733553  0.38697884  0.19147144     0.44300
C943        C  0.89794376  0.11802063  0.16520016    -0.04800
C944        C  0.86417604  0.06906453  0.18084996    -0.32200
C945        C  0.88694158  0.03808120  0.19306209     0.37000
C946        C  0.94469050  0.05630734  0.19030110    -0.05100
C947        C  0.97832710  0.10487492  0.17430833    -0.32100
C948        C  0.95552888  0.13577836  0.16202664     0.36900
H949        H  0.81971396  0.05408765  0.18301506     0.17300
O950        O  0.85166353  0.49173497  0.21006401    -0.59600
H951        H  0.52246578  0.11865794  0.17172002     0.17300
O952        O  0.99007132  0.18359853  0.14708404    -0.59700
H953        H  0.50009041  0.21344526  0.16012221     0.44300
H954        H  0.83860191  0.46068060  0.19560001     0.44300
C955        C  0.61432573  0.06019578  0.19144977    -0.04800
C956        C  0.63000982  0.02788204  0.17423483    -0.32200
C957        C  0.68379553  0.05126166  0.16181119     0.37000
C958        C  0.72282554  0.10820961  0.16596528    -0.05100
C959        C  0.70695465  0.14069670  0.18294299    -0.32100
C960        C  0.65311868  0.11728805  0.19538514     0.36900
H961        H  0.60120085  0.98386920  0.17140258     0.17300
O962        O  0.69789183  0.01794033  0.14565965    -0.59600
H963        H  0.73586545  0.18467983  0.18587920     0.17300
O964        O  0.63907180  0.15033624  0.21185405    -0.59700
H965        H  0.62033753  0.16310584  0.19776247     0.44300
H966        H  0.71887006  0.00749521  0.15957446     0.44300
C967        C  0.66257373  0.08383256  0.40213905    -0.04800
C968        C  0.66051513  0.04715139  0.37978145    -0.32200
C969        C  0.69475294  0.06709195  0.35469487     0.37000
C970        C  0.73174459  0.12432658  0.35186292    -0.05100
C971        C  0.73316359  0.16083443  0.37395932    -0.32100
C972        C  0.69861498  0.14120369  0.39875344     0.36900
H973        H  0.63184008  0.00295977  0.38158231     0.17300
O974        O  0.69269602  0.03037614  0.33350093    -0.59600
H975        H  0.76295442  0.20474701  0.37257580     0.17300
O976        O  0.70239521  0.17820170  0.42024202    -0.59700
H977        H  0.68026044  0.19479437  0.41260063     0.44300
H978        H  0.71741484  0.01655748  0.34085325     0.44300
C979        C  0.89712244  0.27555596  0.34939133    -0.04800
C980        C  0.93663294  0.27643949  0.36918900    -0.32200
C981        C  0.95207401  0.30996424  0.39442636     0.37000
C982        C  0.92690978  0.34250755  0.40034848    -0.05100
C983        C  0.88866164  0.34291704  0.37982944    -0.32100
C984        C  0.87383401  0.30974223  0.35437985     0.36900
H985        H  0.95334396  0.24874916  0.36584057     0.17300
O986        O  0.98944607  0.30832541  0.41387167    -0.59600
H987        H  0.87028236  0.36914284  0.38342148     0.17300
O988        O  0.83549334  0.30971878  0.33498793    -0.59700
H989        H  0.79839147  0.28608767  0.34416546     0.44300
H990        H  0.02692856  0.33322461  0.40533535     0.44300
C991        C  0.91835316  0.07529254  0.39919755    -0.04800
C992        C  0.95626716  0.10859832  0.37716631    -0.32200
C993        C  0.93781196  0.12578154  0.35268443     0.37000
C994        C  0.88087029  0.10954927  0.35011616    -0.05100
C995        C  0.84293473  0.07483460  0.37157139    -0.32100
C996        C  0.86107989  0.05724088  0.39581075     0.36900
H997        H  0.00034257  0.12150472  0.37898587     0.17300
O998        O  0.97580622  0.15969375  0.33201115    -0.59600
H999        H  0.79924647  0.06339823  0.37026785     0.17300
O1000       O  0.82303178  0.02535901  0.41699887    -0.59700
H1001       H  0.80432145  0.98697328  0.40888984     0.44300
H1002       H  0.99128241  0.19787416  0.34002771     0.44300
C1003       C  0.89596600  0.28221319  0.28205957    -0.04800
C1004       C  0.95262452  0.32177838  0.28720267    -0.32200
C1005       C  0.97721569  0.37495604  0.27453564     0.37000
C1006       C  0.94526506  0.38976019  0.25638414    -0.05100
C1007       C  0.88846682  0.35035863  0.25152137    -0.32100
C1008       C  0.86408146  0.29700381  0.26386359     0.36900
H1009       H  0.97793769  0.31132556  0.30118411     0.17300
O1010       O  0.03321942  0.41105583  0.27876046    -0.59600
H1011       H  0.86307920  0.36079695  0.23760824     0.17300
O1012       O  0.80875197  0.25994071  0.25833930    -0.59700
H1013       H  0.78810325  0.26332172  0.27554811     0.44300
H1014       H  0.03544333  0.43231115  0.29697288     0.44300
C1015       C  0.94578838  0.05882485  0.25613394    -0.04800
C1016       C  0.96107617  0.11426531  0.25009362    -0.32200
C1017       C  0.93138897  0.13856081  0.26236839     0.37000
C1018       C  0.88720993  0.10836660  0.28219077    -0.05100
C1019       C  0.87258281  0.05325568  0.28872080    -0.32100
C1020       C  0.90144134  0.02850815  0.27585454     0.36900
H1021       H  0.99558281  0.13851436  0.23524588     0.17300
O1022       O  0.94766791  0.19271174  0.25597115    -0.59600
H1023       H  0.83876972  0.02940914  0.30403016     0.17300
O1024       O  0.88540890  0.97445553  0.28235851    -0.59700
H1025       H  0.85877045  0.95196954  0.26645552     0.44300
H1026       H  0.92914909  0.19117292  0.23688234     0.44300
C1027       C  0.61346142  0.05705534  0.25733451    -0.04800
C1028       C  0.65485732  0.04261726  0.25117494    -0.32200
C1029       C  0.70856599  0.07243611  0.26365619     0.37000
C1030       C  0.72118227  0.11604459  0.28380652    -0.05100
C1031       C  0.67932849  0.12955287  0.29064673    -0.32100
C1032       C  0.62591299  0.10046497  0.27761349     0.36900
H1033       H  0.64591453  0.00889860  0.23589087     0.17300
O1034       O  0.74768227  0.05709396  0.25693805    -0.59600
H1035       H  0.68825635  0.16308499  0.30607106     0.17300
O1036       O  0.58733870  0.11688042  0.28352894    -0.59700
H1037       H  0.56810960  0.09706613  0.30186350     0.44300
H1038       H  0.76333238  0.07426705  0.23748780     0.44300
C1039       C  0.57424477  0.15681482  0.89846416    -0.04800
C1040       C  0.63207412  0.19300301  0.89760248    -0.32200
C1041       C  0.65648201  0.22801941  0.87349763     0.37000
C1042       C  0.62286191  0.22751053  0.84987786    -0.05100
C1043       C  0.56535569  0.18974053  0.85004892    -0.32100
C1044       C  0.54090193  0.15443685  0.87411729     0.36900
H1045       H  0.65864993  0.19367709  0.91546228     0.17300
O1046       O  0.71336796  0.26293108  0.87313305    -0.59600
H1047       H  0.53883548  0.19003133  0.83244127     0.17300
O1048       O  0.48418984  0.11875666  0.87393999    -0.59700
H1049       H  0.46773502  0.13973192  0.88345251     0.44300
H1050       H  0.72150546  0.28949176  0.88976610     0.44300
C1051       C  0.77469493  0.39159251  0.85053863    -0.04800
C1052       C  0.77224040  0.42424496  0.87378645    -0.32200
C1053       C  0.80667745  0.43683455  0.89856464     0.37000
C1054       C  0.84495554  0.41729968  0.90012017    -0.05100
C1055       C  0.84915122  0.38674815  0.87617626    -0.32100
C1056       C  0.81424291  0.37369631  0.85148802     0.36900
H1057       H  0.74161366  0.43799503  0.87325898     0.17300
O1058       O  0.80375308  0.46961215  0.92062737    -0.59600
H1059       H  0.87900551  0.37204614  0.87681195     0.17300
O1060       O  0.81556831  0.33934659  0.82984838    -0.59700
H1061       H  0.85193343  0.36152063  0.81961024     0.44300
H1062       H  0.77255779  0.44382187  0.93355680     0.44300
C1063       C  0.61187559  0.38016785  0.85219778    -0.04800
C1064       C  0.63389867  0.43761291  0.85332988    -0.32200
C1065       C  0.62361165  0.46225518  0.87783101     0.37000
C1066       C  0.59138304  0.42920284  0.90174899    -0.05100
C1067       C  0.56883987  0.37164987  0.90034771    -0.32100
C1068       C  0.57864423  0.34701943  0.87570704     0.36900
H1069       H  0.66105502  0.46358573  0.83581169     0.17300
O1070       O  0.64365724  0.02027477  0.87635953    -0.59600
H1071       H  0.54216885  0.34548766  0.91795569     0.17300
O1072       O  0.55537420  0.29037056  0.87456479    -0.59700
H1073       H  0.57407898  0.28103859  0.89046040     0.44300
H1074       H  0.68173691  0.03712283  0.88505329     0.44300
C1075       C  0.78152993  0.39517909  0.78274504    -0.04800
C1076       C  0.79640442  0.36341356  0.76455277    -0.32200
C1077       C  0.85035064  0.38666692  0.75233050     0.37000
C1078       C  0.88970649  0.44332515  0.75710419    -0.05100
C1079       C  0.87493531  0.47504015  0.77540368    -0.32100
C1080       C  0.82128979  0.45149905  0.78811475     0.36900
H1081       H  0.76690664  0.31979425  0.76084313     0.17300
O1082       O  0.86416409  0.35400312  0.73531593    -0.59600
H1083       H  0.90420930  0.51879474  0.77880818     0.17300
O1084       O  0.80702368  0.48429684  0.80473392    -0.59700
H1085       H  0.83288642  0.49727002  0.82194611     0.44300
H1086       H  0.86464866  0.32661372  0.74908705     0.44300
C1087       C  0.60840332  0.38778518  0.78425106    -0.04800
C1088       C  0.55381879  0.37632514  0.79148380    -0.32200
C1089       C  0.52980333  0.40542700  0.77825863     0.37000
C1090       C  0.56023807  0.44716547  0.75738786    -0.05100
C1091       C  0.61554953  0.45989040  0.75091586    -0.32100
C1092       C  0.63923130  0.43023795  0.76377267     0.36900
H1093       H  0.52934067  0.34415132  0.80732533     0.17300
O1094       O  0.47596064  0.39167840  0.78530716    -0.59600
H1095       H  0.64008889  0.49214871  0.73512777     0.17300
O1096       O  0.69284115  0.44362821  0.75636296    -0.59700
H1097       H  0.71714005  0.47302970  0.77068666     0.44300
H1098       H  0.45196136  0.35676138  0.77425190     0.44300
C1099       C  0.61648580  0.22062509  0.78233362    -0.04800
C1100       C  0.56651722  0.20396843  0.76677556    -0.32200
C1101       C  0.53634670  0.15033807  0.75444058     0.37000
C1102       C  0.55646413  0.11258554  0.75705408    -0.05100
C1103       C  0.60617264  0.12907680  0.77283821    -0.32100
C1104       C  0.63626854  0.18265076  0.78522999     0.36900
H1105       H  0.55001854  0.23208179  0.76493199     0.17300
O1106       O  0.98847646  0.13616587  0.73936553    -0.59600
H1107       H  0.62283631  0.10107971  0.77453170     0.17300
O1108       O  0.68509453  0.19759544  0.80020288    -0.59700
H1109       H  0.71530973  0.21747766  0.78549885     0.44300
H1110       H  0.95822878  0.11912652  0.75432510     0.44300
C1111       C  0.61278446  0.22765936  0.59698983    -0.04800
C1112       C  0.63708894  0.19386704  0.59485228    -0.32200
C1113       C  0.62518736  0.15822077  0.57052886     0.37000
C1114       C  0.58919975  0.15696176  0.54793644    -0.05100
C1115       C  0.56439588  0.19024669  0.55045685    -0.32100
C1116       C  0.57540504  0.22488845  0.57494567     0.36900
H1117       H  0.66713316  0.19698246  0.61131542     0.17300
O1118       O  0.64950200  0.12545877  0.56876486    -0.59600
H1119       H  0.53519666  0.18830455  0.53378037     0.17300
O1120       O  0.55100139  0.25755136  0.57662726    -0.59700
H1121       H  0.51977243  0.23872444  0.59091174     0.44300
H1122       H  0.68593765  0.14861865  0.55878045     0.44300
C1123       C  0.77273878  0.38433568  0.59663319    -0.04800
C1124       C  0.77228131  0.35051139  0.57325860    -0.32200
C1125       C  0.80519490  0.37351513  0.54822940     0.37000
C1126       C  0.84040329  0.43130152  0.54658830    -0.05100
C1127       C  0.84223913  0.46514711  0.57043180    -0.32100
C1128       C  0.80848475  0.44204179  0.59536652     0.36900
H1129       H  0.74426891  0.30601533  0.57391083     0.17300
O1130       O  0.80419416  0.33892144  0.52604848    -0.59600
H1131       H  0.86954807  0.50972778  0.56960155     0.17300
O1132       O  0.80689299  0.47635631  0.61694748    -0.59700
H1133       H  0.84377108  0.49289787  0.62702086     0.44300
H1134       H  0.77223986  0.33230919  0.51320354     0.44300
C1135       C  0.56553212  0.41138625  0.55007936    -0.04800
C1136       C  0.62311905  0.43080895  0.55013772    -0.32200
C1137       C  0.64830384  0.42013920  0.57386181     0.37000
C1138       C  0.61574375  0.38748828  0.59763121    -0.05100
C1139       C  0.55830130  0.36942426  0.59830074    -0.32100
C1140       C  0.53311614  0.38174916  0.57483970     0.36900
H1141       H  0.64920515  0.45573946  0.53203492     0.17300
O1142       O  0.70499759  0.44088966  0.57326415    -0.59600
H1143       H  0.53260410  0.34375242  0.61629973     0.17300
O1144       O  0.47689988  0.36404295  0.57614476    -0.59700
H1145       H  0.45808988  0.32528134  0.56859084     0.44300
H1146       H  0.72107810  0.47723135  0.58366772     0.44300
C1147       C  0.55969486  0.11292232  0.69122987    -0.04800
C1148       C  0.61579042  0.15330550  0.69713043    -0.32200
C1149       C  0.64034692  0.20626932  0.68429623     0.37000
C1150       C  0.60943022  0.21963962  0.66456095    -0.05100
C1151       C  0.55369209  0.17892916  0.65818768    -0.32100
C1152       C  0.52893975  0.12611313  0.67126054     0.36900
H1153       H  0.64050409  0.14396835  0.71219265     0.17300
O1154       O  0.69487066  0.24436828  0.69090045    -0.59600
H1155       H  0.52910038  0.18826041  0.64301623     0.17300
O1156       O  0.97395897  0.08857703  0.66582950    -0.59700
H1157       H  0.97437682  0.06931883  0.64729697     0.44300
H1158       H  0.71760140  0.23756290  0.67612685     0.44300
C1159       C  0.88953638  0.44690411  0.69127641    -0.04800
C1160       C  0.87540304  0.40031324  0.67327238    -0.32200
C1161       C  0.82220227  0.37073133  0.65991953     0.37000
C1162       C  0.78189666  0.38746710  0.66449609    -0.05100
C1163       C  0.79621843  0.43441947  0.68218509    -0.32100
C1164       C  0.84970088  0.46448650  0.69524498     0.36900
H1165       H  0.90500438  0.38560409  0.67042965     0.17300
O1166       O  0.80900447  0.32410397  0.64334898    -0.59600
H1167       H  0.76650777  0.44900042  0.68502421     0.17300
O1168       O  0.86380653  0.51228603  0.71097330    -0.59700
H1169       H  0.83383688  0.50241143  0.72590027     0.44300
H1170       H  0.83334240  0.33743039  0.62558864     0.44300
C1171       C  0.61367118  0.39201363  0.66524172    -0.04800
C1172       C  0.62908147  0.44732757  0.65874352    -0.32200
C1173       C  0.60059951  0.47261082  0.67141952     0.37000
C1174       C  0.55624812  0.44284712  0.69121307    -0.05100
C1175       C  0.54012957  0.38715263  0.69726362    -0.32100
C1176       C  0.56911414  0.36211690  0.68489165     0.36900
H1177       H  0.66324374  0.47092276  0.64356587     0.17300
O1178       O  0.62040334  0.02812913  0.66661500    -0.59600
H1179       H  0.00577631  0.36336177  0.71277499     0.17300
O1180       O  0.55217560  0.30780454  0.69124237    -0.59700
H1181       H  0.07136573  0.30888598  0.70986760     0.44300
H1182       H  0.60129120  0.02894443  0.64819200     0.44300
C1183       C  0.66685058  0.83231571  0.60444680     0.46100
H1184       H  0.66616289  0.83183213  0.57978757    -0.02900
C1185       C  0.66822585  0.83289688  0.66195544     0.46200
H1186       H  0.66878958  0.83333777  0.68655854    -0.02900
C1187       C  0.72537606  0.85937336  0.61725612    -0.16600
C1188       C  0.63998837  0.86346834  0.61776331    -0.16300
C1189       C  0.63613449  0.77485475  0.61753317    -0.16700
C1190       C  0.72778395  0.86054161  0.64760250    -0.16700
C1191       C  0.63955916  0.86414337  0.64812994    -0.16200
C1192       C  0.63641972  0.77339220  0.64786890    -0.16600
C1193       C  0.67010399  0.83313017  0.84298688     0.46100
H1194       H  0.67069045  0.83312326  0.86761010    -0.02900
C1195       C  0.66890850  0.83373968  0.78553270     0.46200
H1196       H  0.66843964  0.83374581  0.76092699    -0.02900
C1197       C  0.72783126  0.86612091  0.82971804    -0.16600
C1198       C  0.64541744  0.77573307  0.82959809    -0.16300
C1199       C  0.63641613  0.85792346  0.83061334    -0.16700
C1200       C  0.72879487  0.86687588  0.79936105    -0.16700
C1201       C  0.64318321  0.77445955  0.79924406    -0.16200
C1202       C  0.63581436  0.86007989  0.80021909    -0.16600
C1203       C  0.00199180  0.50090174  0.69552248     0.46100
H1204       H  0.50258421  0.50075729  0.67033868    -0.02900
C1205       C  0.00201121  0.50166360  0.75347722     0.46200
H1206       H  0.00192011  0.50222498  0.77808672    -0.02900
C1207       C  0.53182929  0.97132072  0.70867665    -0.16600
C1208       C  0.53233019  0.56038053  0.70867745    -0.16300
C1209       C  0.94327664  0.97217783  0.70868742    -0.16700
C1210       C  0.53256129  0.97206482  0.73919622    -0.16700
C1211       C  0.53148001  0.56053643  0.73914667    -0.16200
C1212       C  0.94323402  0.97130539  0.73914876    -0.16600
C1213       C  0.83437303  0.66946656  0.28568829     0.46100
H1214       H  0.83340173  0.66872744  0.26109559    -0.02900
C1215       C  0.83671448  0.67122895  0.34318212     0.46200
H1216       H  0.83799137  0.67217275  0.36785143    -0.02900
C1217       C  0.77519785  0.64362524  0.30043142    -0.15400
C1218       C  0.86132222  0.63668077  0.29947069    -0.16300
C1219       C  0.86818875  0.72910804  0.29930220    -0.16700
C1220       C  0.77802794  0.64597734  0.33082778    -0.16700
C1221       C  0.86101965  0.63775808  0.32983115    -0.16200
C1222       C  0.86925170  0.72816930  0.32959660    -0.16600
C1223       C  0.83560847  0.66983252  0.16324563     0.46100
H1224       H  0.83537675  0.66982830  0.18785792    -0.02900
C1225       C  0.83630195  0.67019115  0.10564535     0.46200
H1226       H  0.83655277  0.67017213  0.08097685    -0.02900
C1227       C  0.77633906  0.63520403  0.14898132    -0.16600
C1228       C  0.86004645  0.72879324  0.14937611    -0.16300
C1229       C  0.87084528  0.64547561  0.14918530    -0.16700
C1230       C  0.77831099  0.63522700  0.11865088    -0.16700
C1231       C  0.85856199  0.72753042  0.11900932    -0.16200
C1232       C  0.87165006  0.64779352  0.11886404    -0.16600
C1233       C  0.50155793  0.50085996  0.19496339     0.46100
H1234       H  0.50172131  0.50068294  0.17035135    -0.02900
C1235       C  0.50106941  0.50092927  0.25293674     0.46200
H1236       H  0.50079671  0.50099900  0.27753844    -0.02900
C1237       C  0.97050107  0.53010244  0.20873155    -0.16600
C1238       C  0.97281714  0.94278282  0.20850509    -0.16300
C1239       C  0.56077875  0.53103099  0.20888020    -0.16700
C1240       C  0.97097512  0.53081318  0.23921158    -0.16700
C1241       C  0.97165900  0.94262133  0.23893657    -0.16200
C1242       C  0.56056465  0.53053578  0.23937564    -0.16600
Zn1243     Zn  0.50288218  0.50092621  0.93398387     1.49700
Zn1244     Zn  0.54321014  0.58015243  0.98559701     1.49400
Zn1245     Zn  0.92587185  0.96616778  0.98660332     1.49100
Zn1246     Zn  0.53986544  0.96272908  0.98694839     1.49500
O1247       O  0.50304039  0.50276340  0.97531701    -1.83400
O1248       O  0.51202985  0.56851102  0.91593827    -0.74100
O1249       O  0.99449866  0.59798796  0.01137592    -0.73900
O1250       O  0.87576689  0.94515937  0.95004016    -0.73400
O1251       O  0.57162292  0.62861395  0.94861615    -0.74100
O1252       O  0.93430229  0.94085329  0.91776220    -0.73700
O1253       O  0.91549074  0.51686716  0.01400298    -0.74300
O1254       O  0.99007825  0.90291821  0.01550558    -0.73700
O1255       O  0.60468216  0.59263068  0.01325584    -0.74400
O1256       O  0.90887488  0.90210103  0.01336954    -0.73800
O1257       O  0.60484088  0.51243208  0.01258349    -0.74300
O1258       O  0.56305464  0.93424150  0.95070617    -0.74200
O1259       O  0.56346276  0.99290159  0.91757382    -0.74000
C1260       C  0.55057117  0.61684019  0.92257536     0.77800
C1261       C  0.94651257  0.56668807  0.02269296     0.78300
C1262       C  0.88643027  0.93373963  0.92419181     0.77300
C1263       C  0.94031273  0.88538993  0.02462320     0.77600
C1264       C  0.62249848  0.56123432  0.02283178     0.78800
C1265       C  0.57380166  0.95499475  0.92473477     0.77800
Zn1266     Zn  0.54131754  0.96343534  0.46265817     1.49700
Zn1267     Zn  0.92342741  0.96068892  0.46124251     1.49400
Zn1268     Zn  0.49761782  0.49953026  0.51451010     1.49100
Zn1269     Zn  0.53647136  0.57580017  0.46207965     1.49500
O1270       O  0.49962492  0.49960668  0.47309523    -1.83400
O1271       O  0.99400834  0.89929120  0.43698849    -0.74100
O1272       O  0.87199595  0.93262611  0.49687264    -0.73900
O1273       O  0.50280333  0.93742153  0.53165851    -0.73400
O1274       O  0.91327927  0.89948633  0.43457522    -0.74100
O1275       O  0.56590358  0.94029068  0.49998021    -0.73700
O1276       O  0.92846844  0.99561707  0.52937979    -0.74300
O1277       O  0.55819109  0.62528175  0.49872499    -0.73700
O1278       O  0.90734204  0.50878175  0.43473612    -0.74400
O1279       O  0.56011592  0.56667453  0.53115711    -0.73800
O1280       O  0.98837732  0.58817671  0.43361046    -0.74300
O1281       O  0.60253522  0.59180003  0.43719499    -0.74200
O1282       O  0.60441281  0.51252885  0.43609825    -0.74000
C1283       C  0.94546394  0.88149496  0.42598801     0.77800
C1284       C  0.88119071  0.95499591  0.52256042     0.78300
C1285       C  0.54249709  0.92844133  0.52545197     0.77300
C1286       C  0.56987228  0.61475807  0.52438645     0.77600
C1287       C  0.93859686  0.55707277  0.42432800     0.78800
C1288       C  0.62212515  0.56190825  0.42717321     0.77800
C1289       C  0.73057779  0.60797430  0.09820102    -0.04800
C1290       C  0.69429838  0.62927531  0.09510372    -0.32200
C1291       C  0.66014641  0.61600116  0.07003628     0.37000
C1292       C  0.66114126  0.57965045  0.04818897    -0.05100
C1293       C  0.69493570  0.55571430  0.05251025    -0.32100
C1294       C  0.72948556  0.56972524  0.07724761     0.36900
H1295       H  0.69505100  0.65891934  0.11115698     0.17300
O1296       O  0.62528097  0.63788027  0.06743218    -0.59600
H1297       H  0.69524379  0.52661992  0.03643927     0.17300
O1298       O  0.76383823  0.54746348  0.08018962    -0.59700
H1299       H  0.74066912  0.51127601  0.09002549     0.44300
H1300       H  0.64896165  0.67548251  0.05913954     0.44300
C1301       C  0.87852273  0.77538768  0.09889023    -0.04800
C1302       C  0.93587699  0.81295406  0.09650026    -0.32200
C1303       C  0.95667450  0.84891361  0.07233196     0.37000
C1304       C  0.91967968  0.84751387  0.05017731    -0.05100
C1305       C  0.86201040  0.81237453  0.05380116    -0.32100
C1306       C  0.84147608  0.77643987  0.07781779     0.36900
H1307       H  0.96485473  0.81230865  0.11248168     0.17300
O1308       O  0.01322774  0.88474108  0.07045094    -0.59600
H1309       H  0.83273758  0.81165117  0.03755355     0.17300
O1310       O  0.78508360  0.74059751  0.07979557    -0.59700
H1311       H  0.76994540  0.76124594  0.09089435     0.44300
H1312       H  0.01982099  0.91841335  0.08161203     0.44300
C1313       C  0.89960228  0.62773620  0.09853928    -0.04800
C1314       C  0.87754126  0.57068246  0.09472972    -0.32200
C1315       C  0.89088179  0.55009493  0.06952865     0.37000
C1316       C  0.92857049  0.58720111  0.04830859    -0.05100
C1317       C  0.95347213  0.64450072  0.05341167    -0.32100
C1318       C  0.93889739  0.66477594  0.07820765     0.36900
H1319       H  0.84697368  0.54195400  0.11026217     0.17300
O1320       O  0.86726729  0.49371136  0.06609129    -0.59600
H1321       H  0.98343099  0.67372877  0.03783781     0.17300
O1322       O  0.96128110  0.72094118  0.08169840    -0.59700
H1323       H  0.49610401  0.73298115  0.09331833     0.44300
H1324       H  0.83000256  0.48129247  0.05708888     0.44300
C1325       C  0.88667740  0.78214078  0.16618385    -0.04800
C1326       C  0.93812535  0.79976783  0.18037395    -0.32200
C1327       C  0.96844898  0.85348660  0.19248357     0.37000
C1328       C  0.94714445  0.89031802  0.19081649    -0.05100
C1329       C  0.89575416  0.87271156  0.17659641    -0.32100
C1330       C  0.86550435  0.81902732  0.16435928     0.36900
H1331       H  0.95545547  0.77226491  0.18142018     0.17300
O1332       O  0.01828133  0.86930534  0.20658771    -0.59600
H1333       H  0.87801596  0.89988936  0.17600241     0.17300
O1334       O  0.81429246  0.80203997  0.15153831    -0.59700
H1335       H  0.82202003  0.82555612  0.13379250     0.44300
H1336       H  0.04692220  0.88360526  0.19071147     0.44300
C1337       C  0.89718951  0.61778185  0.16571086    -0.04800
C1338       C  0.86339544  0.56950492  0.18187451    -0.32200
C1339       C  0.88596059  0.53849773  0.19425934     0.37000
C1340       C  0.94349346  0.55595508  0.19102924    -0.05100
C1341       C  0.97709018  0.60387536  0.17459638    -0.32100
C1342       C  0.95457961  0.63495480  0.16230383     0.36900
H1343       H  0.81907606  0.55507019  0.18430173     0.17300
O1344       O  0.85262737  0.99055669  0.20830223    -0.59600
H1345       H  0.52194549  0.61825763  0.17213450     0.17300
O1346       O  0.98923566  0.68242036  0.14712360    -0.59700
H1347       H  0.49754648  0.71317836  0.16048605     0.44300
H1348       H  0.83676680  0.96072439  0.19306081     0.44300
C1349       C  0.61381124  0.55891940  0.19126179    -0.04800
C1350       C  0.62973532  0.52679993  0.17400646    -0.32200
C1351       C  0.68345689  0.55055250  0.16140524     0.37000
C1352       C  0.72213990  0.60760197  0.16548199    -0.05100
C1353       C  0.70601205  0.63984663  0.18248766    -0.32100
C1354       C  0.65228092  0.61611945  0.19506490     0.36900
H1355       H  0.60120924  0.48270190  0.17127997     0.17300
O1356       O  0.69793379  0.51750394  0.14525973    -0.59600
H1357       H  0.73469995  0.68388437  0.18540214     0.17300
O1358       O  0.63809173  0.64896972  0.21161624    -0.59700
H1359       H  0.61740551  0.66001888  0.19784875     0.44300
H1360       H  0.71652911  0.50495930  0.15957528     0.44300
C1361       C  0.66253677  0.58355849  0.40258590    -0.04800
C1362       C  0.66077567  0.54688768  0.38031693    -0.32200
C1363       C  0.69496436  0.56688745  0.35519960     0.37000
C1364       C  0.73139420  0.62418493  0.35221044    -0.05100
C1365       C  0.73258258  0.66068154  0.37425217    -0.32100
C1366       C  0.69825086  0.64097234  0.39912020     0.36900
H1367       H  0.63239629  0.50264960  0.38220345     0.17300
O1368       O  0.69344689  0.53027758  0.33407924    -0.59600
H1369       H  0.76206181  0.70466430  0.37277093     0.17300
O1370       O  0.70189167  0.67795836  0.42058453    -0.59700
H1371       H  0.67935063  0.69415671  0.41301088     0.44300
H1372       H  0.71167872  0.51094524  0.34324086     0.44300
C1373       C  0.89696454  0.77564846  0.34981183    -0.04800
C1374       C  0.93639650  0.77621202  0.36956949    -0.32200
C1375       C  0.95249054  0.81007056  0.39469471     0.37000
C1376       C  0.92795895  0.84317424  0.40056719    -0.05100
C1377       C  0.88983735  0.84392657  0.38007901    -0.32100
C1378       C  0.87441374  0.81048208  0.35473458     0.36900
H1379       H  0.95256041  0.74807895  0.36627270     0.17300
O1380       O  0.98975229  0.80814624  0.41410766    -0.59600
H1381       H  0.87194442  0.87058631  0.38363933     0.17300
O1382       O  0.83617730  0.81083160  0.33541504    -0.59700
H1383       H  0.79896826  0.78598647  0.34418892     0.44300
H1384       H  0.02724401  0.83257819  0.40545238     0.44300
C1385       C  0.91813230  0.57583784  0.39932567    -0.04800
C1386       C  0.95648939  0.61123406  0.37801845    -0.32200
C1387       C  0.93812640  0.62841739  0.35350008     0.37000
C1388       C  0.88089373  0.61013905  0.35020369    -0.05100
C1389       C  0.84256276  0.57350856  0.37089038    -0.32100
C1390       C  0.86059086  0.55579224  0.39512593     0.36900
H1391       H  0.00082095  0.62568887  0.38037618     0.17300
O1392       O  0.97627730  0.66401246  0.33336819    -0.59600
H1393       H  0.79854674  0.56047791  0.36893784     0.17300
O1394       O  0.82194752  0.52151851  0.41545368    -0.59700
H1395       H  0.80522775  0.48372487  0.40666788     0.44300
H1396       H  0.99550479  0.70075833  0.34336425     0.44300
C1397       C  0.89526911  0.78247735  0.28241156    -0.04800
C1398       C  0.95159103  0.82256431  0.28795475    -0.32200
C1399       C  0.97604166  0.87561915  0.27517640     0.37000
C1400       C  0.94438991  0.88970145  0.25636514    -0.05100
C1401       C  0.88784399  0.84985701  0.25116416    -0.32100
C1402       C  0.86355434  0.79664969  0.26368806     0.36900
H1403       H  0.97678929  0.81263223  0.30233831     0.17300
O1404       O  0.03169237  0.91237855  0.28000372    -0.59600
H1405       H  0.86257039  0.85984172  0.23688982     0.17300
O1406       O  0.80850034  0.75913145  0.25779418    -0.59700
H1407       H  0.78726610  0.76185691  0.27490898     0.44300
H1408       H  0.03294859  0.93191150  0.29873764     0.44300
C1409       C  0.94571483  0.55875639  0.25681640    -0.04800
C1410       C  0.96125537  0.61428967  0.25079997    -0.32200
C1411       C  0.93153884  0.63872341  0.26291585     0.37000
C1412       C  0.88699090  0.60857271  0.28253624    -0.05100
C1413       C  0.87215537  0.55339226  0.28908763    -0.32100
C1414       C  0.90108507  0.52852185  0.27640336     0.36900
H1415       H  0.99587183  0.63844034  0.23599155     0.17300
O1416       O  0.94804234  0.69291992  0.25650689    -0.59600
H1417       H  0.83808755  0.52956598  0.30426589     0.17300
O1418       O  0.88478085  0.47440395  0.28290486    -0.59700
H1419       H  0.85794618  0.45199082  0.26705931     0.44300
H1420       H  0.93001167  0.69149886  0.23726929     0.44300
C1421       C  0.61342341  0.55641197  0.25726303    -0.04800
C1422       C  0.65527156  0.54263777  0.25104718    -0.32200
C1423       C  0.70881631  0.57268388  0.26368826     0.37000
C1424       C  0.72080687  0.61581456  0.28406641    -0.05100
C1425       C  0.67850863  0.62866212  0.29095526    -0.32100
C1426       C  0.62526071  0.59937566  0.27775232     0.36900
H1427       H  0.64679662  0.50922117  0.23563834     0.17300
O1428       O  0.74840208  0.55801177  0.25689189    -0.59600
H1429       H  0.68696077  0.66186122  0.30652478     0.17300
O1430       O  0.58623622  0.61518357  0.28371720    -0.59700
H1431       H  0.56770237  0.59583566  0.30227797     0.44300
H1432       H  0.76382911  0.57528551  0.23743203     0.44300
C1433       C  0.57391064  0.65742735  0.89852257    -0.04800
C1434       C  0.63169735  0.69380276  0.89781725    -0.32200
C1435       C  0.65628036  0.72877204  0.87371039     0.37000
C1436       C  0.62284829  0.72816118  0.84995392    -0.05100
C1437       C  0.56531884  0.69037234  0.85004701    -0.32100
C1438       C  0.54073353  0.65498701  0.87408953     0.36900
H1439       H  0.65814157  0.69447453  0.91574907     0.17300
O1440       O  0.71318949  0.76361502  0.87343114    -0.59600
H1441       H  0.53892020  0.69057036  0.83234508     0.17300
O1442       O  0.48408009  0.61903614  0.87377160    -0.59700
H1443       H  0.46743522  0.63926530  0.88392143     0.44300
H1444       H  0.72132322  0.79006633  0.89012032     0.44300
C1445       C  0.77566134  0.89143621  0.85028941    -0.04800
C1446       C  0.77289149  0.92356607  0.87372458    -0.32200
C1447       C  0.80683110  0.93546189  0.89863579     0.37000
C1448       C  0.84537074  0.91624507  0.90003736    -0.05100
C1449       C  0.85001604  0.88633480  0.87589715    -0.32100
C1450       C  0.81529798  0.87363163  0.85114210     0.36900
H1451       H  0.74218672  0.93722680  0.87329072     0.17300
O1452       O  0.80309565  0.96721827  0.92102217    -0.59600
H1453       H  0.88006480  0.87186836  0.87642767     0.17300
O1454       O  0.81695552  0.83976596  0.82931600    -0.59700
H1455       H  0.85337858  0.86224875  0.81918158     0.44300
H1456       H  0.77138774  0.94083878  0.93349323     0.44300
C1457       C  0.61356973  0.88178404  0.85199792    -0.04800
C1458       C  0.63428220  0.93908909  0.85246498    -0.32200
C1459       C  0.62365157  0.96410576  0.87670517     0.37000
C1460       C  0.59279726  0.93164241  0.90111616    -0.05100
C1461       C  0.57163097  0.87427471  0.90035945    -0.32100
C1462       C  0.58138163  0.84921498  0.87592483     0.36900
H1463       H  0.66049386  0.96469481  0.83457839     0.17300
O1464       O  0.64535374  0.51870480  0.87825725    -0.59600
H1465       H  0.54589213  0.84845016  0.91831635     0.17300
O1466       O  0.55887294  0.79262937  0.87535142    -0.59700
H1467       H  0.57777501  0.78414610  0.89150889     0.44300
H1468       H  0.68383524  0.53413484  0.88623024     0.44300
C1469       C  0.78228129  0.89491922  0.78242525    -0.04800
C1470       C  0.79696399  0.86316496  0.76408679    -0.32200
C1471       C  0.85082861  0.88642522  0.75175769     0.37000
C1472       C  0.89030637  0.94301359  0.75665810    -0.05100
C1473       C  0.87574435  0.97465539  0.77512651    -0.32100
C1474       C  0.82214915  0.95117118  0.78785559     0.36900
H1475       H  0.76736895  0.81959424  0.76030882     0.17300
O1476       O  0.86442010  0.85384245  0.73453130    -0.59600
H1477       H  0.90511228  0.01837450  0.77859679     0.17300
O1478       O  0.80801024  0.98399160  0.80453928    -0.59700
H1479       H  0.83390649  0.99686973  0.82173741     0.44300
H1480       H  0.86669315  0.82746433  0.74835037     0.44300
C1481       C  0.60915575  0.88805211  0.78396193    -0.04800
C1482       C  0.55462361  0.87654744  0.79136999    -0.32200
C1483       C  0.53030474  0.90533035  0.77811769     0.37000
C1484       C  0.56036381  0.94673891  0.75702232    -0.05100
C1485       C  0.61558005  0.95941069  0.75033211    -0.32100
C1486       C  0.63954661  0.93005770  0.76320494     0.36900
H1487       H  0.53047574  0.84466720  0.80741509     0.17300
O1488       O  0.47660112  0.89169033  0.78543596    -0.59600
H1489       H  0.63989454  0.99151037  0.73442937     0.17300
O1490       O  0.69303400  0.94335161  0.75556484    -0.59700
H1491       H  0.71759293  0.97302419  0.76969787     0.44300
H1492       H  0.45236890  0.85713298  0.77415866     0.44300
C1493       C  0.61672154  0.72105893  0.78229265    -0.04800
C1494       C  0.56707696  0.70469380  0.76648058    -0.32200
C1495       C  0.53698882  0.65117541  0.75403102     0.37000
C1496       C  0.55682493  0.61321867  0.75685991    -0.05100
C1497       C  0.60631704  0.62951277  0.77280909    -0.32100
C1498       C  0.63639588  0.68302417  0.78524805     0.36900
H1499       H  0.55080694  0.73297428  0.76448911     0.17300
O1500       O  0.98820266  0.63605844  0.73956430    -0.59600
H1501       H  0.62283291  0.60140617  0.77459623     0.17300
O1502       O  0.68513473  0.69787287  0.80028969    -0.59700
H1503       H  0.71547966  0.71849109  0.78575636     0.44300
H1504       H  0.95787003  0.61625940  0.75421497     0.44300
C1505       C  0.61259597  0.72745735  0.59692977    -0.04800
C1506       C  0.63659416  0.69336326  0.59505217    -0.32200
C1507       C  0.62467425  0.65749526  0.57082823     0.37000
C1508       C  0.58916614  0.65651395  0.54803167    -0.05100
C1509       C  0.56462475  0.69004291  0.55032605    -0.32100
C1510       C  0.57545260  0.72470020  0.57476963     0.36900
H1511       H  0.66635256  0.69633791  0.61165933     0.17300
O1512       O  0.64840364  0.62418363  0.56939104    -0.59600
H1513       H  0.53566405  0.68821816  0.53353310     0.17300
O1514       O  0.55097089  0.75727725  0.57635923    -0.59700
H1515       H  0.51659994  0.73578891  0.58831273     0.44300
H1516       H  0.68570318  0.64745020  0.56026922     0.44300
C1517       C  0.77234059  0.88400360  0.59633715    -0.04800
C1518       C  0.77202828  0.85006611  0.57306654    -0.32200
C1519       C  0.80478524  0.87302629  0.54799668     0.37000
C1520       C  0.83958127  0.93085579  0.54623513    -0.05100
C1521       C  0.84108184  0.96481016  0.56993181    -0.32100
C1522       C  0.80757114  0.94173820  0.59491305     0.36900
H1523       H  0.74429294  0.80552890  0.57385071     0.17300
O1524       O  0.80409206  0.83839343  0.52592261    -0.59600
H1525       H  0.86804568  0.00943236  0.56897876     0.17300
O1526       O  0.80567494  0.97604476  0.61640067    -0.59700
H1527       H  0.84235837  0.99246896  0.62666606     0.44300
H1528       H  0.77243303  0.83190841  0.51287030     0.44300
C1529       C  0.56541350  0.91006153  0.54941040    -0.04800
C1530       C  0.62327434  0.93121374  0.55013698    -0.32200
C1531       C  0.64828461  0.92084333  0.57406944     0.37000
C1532       C  0.61538959  0.88708556  0.59743883    -0.05100
C1533       C  0.55752992  0.86699202  0.59735796    -0.32100
C1534       C  0.53239481  0.87861290  0.57358075     0.36900
H1535       H  0.64964411  0.95730616  0.53242496     0.17300
O1536       O  0.70516816  0.94288142  0.57404630    -0.59600
H1537       H  0.53157513  0.84012882  0.61494441     0.17300
O1538       O  0.47564102  0.85830095  0.57392263    -0.59700
H1539       H  0.45901408  0.82011659  0.56568061     0.44300
H1540       H  0.72021375  0.97987662  0.58361915     0.44300
C1541       C  0.56000995  0.61303521  0.69104115    -0.04800
C1542       C  0.61604593  0.65352801  0.69698142    -0.32200
C1543       C  0.64046628  0.70649378  0.68417987     0.37000
C1544       C  0.60946661  0.71973776  0.66444333    -0.05100
C1545       C  0.55382024  0.67889309  0.65799107    -0.32100
C1546       C  0.52922500  0.62605093  0.67099983     0.36900
H1547       H  0.64078187  0.64429768  0.71208514     0.17300
O1548       O  0.69492610  0.74472700  0.69082992    -0.59600
H1549       H  0.52919754  0.68812328  0.64278523     0.17300
O1550       O  0.97264862  0.58950108  0.66709902    -0.59700
H1551       H  0.97153377  0.56924222  0.64867335     0.44300
H1552       H  0.71775144  0.73844228  0.67588357     0.44300
C1553       C  0.89013644  0.94703164  0.69080598    -0.04800
C1554       C  0.87625173  0.90093187  0.67242859    -0.32200
C1555       C  0.82296214  0.87125651  0.65911210     0.37000
C1556       C  0.78224357  0.88736168  0.66411580    -0.05100
C1557       C  0.79635596  0.93384921  0.68215076    -0.32100
C1558       C  0.84991672  0.96403571  0.69514444     0.36900
H1559       H  0.90611189  0.88662891  0.66926715     0.17300
O1560       O  0.81007392  0.82507806  0.64219566    -0.59600
H1561       H  0.76637934  0.94800506  0.68533313     0.17300
O1562       O  0.86371043  0.01142327  0.71120533    -0.59700
H1563       H  0.83343626  0.00120404  0.72598323     0.44300
H1564       H  0.83492913  0.83883425  0.62464123     0.44300
C1565       C  0.61356897  0.89191313  0.66498600    -0.04800
C1566       C  0.62984959  0.94760756  0.65898186    -0.32200
C1567       C  0.60150642  0.97299272  0.67171548     0.37000
C1568       C  0.55617998  0.94280977  0.69089722    -0.05100
C1569       C  0.53919576  0.88674893  0.69643574    -0.32100
C1570       C  0.56810070  0.86162751  0.68405598     0.36900
H1571       H  0.66469151  0.97145509  0.64422597     0.17300
O1572       O  0.61830386  0.52725298  0.66552924    -0.59600
H1573       H  0.00543837  0.86328680  0.71265753     0.17300
O1574       O  0.55026581  0.80691419  0.68982720    -0.59700
H1575       H  0.07000988  0.80808857  0.71043030     0.44300
H1576       H  0.59966916  0.52679070  0.64667110     0.44300
loop_ 
_geom_bond_atom_site_label_1 
_geom_bond_atom_site_label_2 
_geom_bond_distance 
_geom_bond_site_symmetry_2 
_ccdc_geom_bond_type 
C1            H2   1.113       .  S
C1            C7   1.511       .  S
C1            C6   1.509       .  S
C1            C5   1.513       .  S
C3            H4   1.110       .  S
C3            C9   1.567       .  S
C3            C8   1.564       .  S
C3           C10   1.564       .  S
C5            C8   1.371       .  D
C5          C335   1.470       .  S
C6            C9   1.372       .  D
C6          C350   1.479       .  S
C7           C10   1.370       .  D
C7          C323   1.466       .  S
C8          C374   1.496       .  S
C9          C383   1.489       .  S
C10         C362   1.500       .  S
C11          H12   1.112       .  S
C11          C17   1.512       .  S
C11          C16   1.508       .  S
C11          C15   1.510       .  S
C13          H14   1.111       .  S
C13          C19   1.567       .  S
C13          C18   1.563       .  S
C13          C20   1.566       .  S
C15          C18   1.370       .  D
C15         C263   1.470       .  S
C16          C19   1.371       .  D
C16         C254   1.475       .  S
C17          C20   1.374       .  D
C17         C275   1.470       .  S
C18         C287   1.492       .  S
C19         C311   1.493       .  S
C20         C299   1.502       .  S
C21         H810   1.110       .  S
C21         C421   1.547   1_545  S
C21         C814   1.550       .  S
C21        C1207   1.551   1_545  S
H22         C809   1.110       .  S
C23          H24   1.111       .  S
C23         C817   1.549       .  S
C23        C1210   1.547   1_545  S
C23         C424   1.549   1_545  S
C25        C1203   1.551       .  S
C25          C28   1.378       .  D
C25         C386   1.493       .  S
C26         C809   1.551       .  S
C26          C29   1.376       .  D
C26         C359   1.504       .  S
C27         C415   1.547       .  S
C27          C30   1.375       .  D
C27         C371   1.501       .  S
C28        C1205   1.547       .  S
C28         C302   1.507       .  S
C29         C811   1.549       .  S
C29         C314   1.496       .  S
C30         C417   1.550       .  S
C30         C290   1.495       .  S
C31          H32   1.110       .  S
C31          C37   1.562       .  S
C31          C36   1.563       .  S
C31          C35   1.565       .  S
C33          H34   1.114       .  S
C33          C39   1.508       .  S
C33          C38   1.512       .  S
C33          C40   1.512       .  S
C35          C38   1.374       .  D
C35         C242   1.494       .  S
C36          C39   1.369       .  D
C36         C230   1.490       .  S
C37          C40   1.369       .  D
C37         C215   1.500       .  S
C38         C182   1.476       .  S
C39         C206   1.470       .  S
C40         C191   1.461       .  S
C41          H42   1.111       .  S
C41          C47   1.562       .  S
C41          C46   1.563       .  S
C41          C45   1.560       .  S
C43          H44   1.113       .  S
C43          C49   1.513       .  S
C43          C48   1.516       .  S
C43          C50   1.516       .  S
C45          C48   1.369       .  D
C45         C170   1.495       .  S
C46          C49   1.372       .  D
C46         C143   1.487       .  S
C47          C50   1.370       .  D
C47         C155   1.497       .  S
C48         C107   1.468       .  S
C49         C119   1.478       .  S
C50         C131   1.467       .  S
C51          H52   1.111       .  S
C51          C57   1.548       .  S
C51        C1238   1.548   1_445  S
C51         C843   1.545   1_455  S
C53          H54   1.110       .  S
C53          C60   1.548       .  S
C53        C1241   1.548   1_445  S
C53         C846   1.549   1_455  S
C55         C839   1.545       .  S
C55          C58   1.376       .  D
C55         C158   1.500       .  S
C56        C1233   1.547       .  S
C56          C59   1.374       .  D
C56         C146   1.489       .  S
C57          C60   1.377       .  D
C57         C167   1.498       .  S
C58         C841   1.550       .  S
C58         C227   1.494       .  S
C59        C1235   1.548       .  S
C59         C218   1.504       .  S
C60         C239   1.498       .  S
Zn61         O65   1.866       .  S
Zn61         O66   1.949       .  S
Zn61       O1252   1.943   1_445  S
Zn61        O471   1.940   1_545  S
Zn62         O65   1.917       .  S
Zn62         O69   2.048       .  S
Zn62         O73   1.990   1_556  S
Zn62        O855   2.002   1_456  S
Zn63       O1247   1.914       .  S
Zn63         O68   2.040       .  S
Zn63         O74   2.012   1_556  S
Zn63        O465   1.981   1_556  S
Zn64        O459   1.914       .  S
Zn64         O76   2.043       .  S
Zn64        O860   1.998   1_456  S
Zn64        O469   1.990   1_556  S
O65       Zn1245   1.912   1_445  S
O65        Zn458   1.914   1_545  S
O66          C78   1.263       .  A
O67        Zn850   2.002   1_554  S
O67          C79   1.274       .  A
O68          C80   1.277       .  A
O69          C78   1.278       .  A
O70       Zn1243   1.942       .  S
O70          C80   1.264       .  A
O71        Zn457   1.980   1_544  S
O71          C79   1.271       .  A
O72        Zn852   1.998   1_554  S
O72          C81   1.272       .  A
O73          C82   1.272       .  A
O74          C81   1.275       .  A
O75        Zn458   1.990   1_544  S
O75          C82   1.273       .  A
O76          C83   1.278       .  A
O77        Zn455   1.939       .  S
O77          C83   1.263       .  A
C78         C251   1.470       .  S
C79         C134   1.473       .  S
C80         C266   1.467       .  S
C81         C122   1.477       .  S
C82         C110   1.471       .  S
C83         C278   1.465       .  S
Zn84        O482   1.909   1_455  S
Zn84         O93   2.041       .  S
Zn84        O877   1.987   1_455  S
Zn84        O494   2.012       .  S
Zn85       O1270   1.908       .  S
Zn85         O90   2.030       .  S
Zn85         O92   1.978       .  S
Zn85        O490   2.000       .  S
Zn86         O88   1.870   1_565  S
Zn86         O97   1.947   1_665  S
Zn86        O485   1.964   1_655  S
Zn86       O1276   1.952       .  S
Zn87         O88   1.910   1_455  S
Zn87         O95   2.035       .  S
Zn87         O99   1.990       .  S
Zn87        O886   2.000   1_455  S
O88        Zn478   1.910   1_645  S
O88       Zn1267   1.908   1_545  S
O89        Zn872   1.989       .  S
O89         C101   1.273       .  A
O90         C102   1.276       .  A
O91        Zn480   1.960   1_455  S
O91         C103   1.265       .  A
O92         C101   1.272       .  A
O93         C103   1.279       .  A
O94       Zn1268   1.953       .  S
O94         C102   1.265       .  A
O95         C104   1.277       .  A
O96        Zn479   1.997   1_545  S
O96         C105   1.273       .  A
O97         C104   1.264       .  A
O98        Zn875   1.998       .  S
O98         C105   1.273       .  A
O99         C106   1.272       .  A
O100       Zn478   2.008   1_545  S
O100        C106   1.274       .  A
C101        C194   1.467       .  S
C102        C338   1.466       .  S
C103        C347   1.471       .  S
C104        C326   1.461       .  S
C105        C203   1.473       .  S
C106        C179   1.472       .  S
C107        C108   1.397       .  A
C107        C112   1.404       .  A
C108        C109   1.397       .  A
C108        H113   1.084       .  S
C109        C110   1.414       .  A
C109        O114   1.372       .  S
C110        C111   1.401       .  A
C111        C112   1.391       .  A
C111        H115   1.084       .  S
C112        O116   1.369       .  S
O114        H118   0.992       .  S
O116        H117   0.991       .  S
C119        C120   1.399       .  A
C119        C124   1.407       .  A
C120        C121   1.400       .  A
C120        H125   1.084       .  S
C121        C122   1.415       .  A
C121        O126   1.372       .  S
C122        C123   1.400       .  A
C123        C124   1.394       .  A
C123        H127   1.084       .  S
C124        O128   1.368       .  S
O126        H130   0.992       .  S
O128        H129   0.992       .  S
C131        C132   1.394       .  A
C131        C136   1.406       .  A
C132        C133   1.395       .  A
C132        H137   1.084       .  S
C133        C134   1.416       .  A
C133        O138   1.372   1_545  S
C134        C135   1.402       .  A
C135        C136   1.394       .  A
C135        H139   1.084       .  S
C136        O140   1.370       .  S
O138        H142   0.992       .  S
O140        H929   0.991       .  S
H141        O928   0.991       .  S
C143        C144   1.402       .  A
C143        C148   1.410       .  A
C144        C145   1.403       .  A
C144        H149   1.084       .  S
C145        C146   1.411       .  A
C145        O150   1.371       .  S
C146        C147   1.401       .  A
C147        C148   1.405       .  A
C147        H151   1.083       .  S
C148        O152   1.373       .  S
O150        H154   0.991       .  S
O152        H153   0.992       .  S
C155        C156   1.403       .  A
C155        C160   1.413       .  A
C156        C157   1.406       .  A
C156        H161   1.083       .  S
C157        C158   1.414       .  A
C157        O556   1.371   1_545  S
C158        C159   1.403       .  A
C159        C160   1.407       .  A
C159        H951   1.083       .  S
C160        O164   1.371       .  S
O162        C551   1.371       .  S
O162        H166   0.991       .  S
H163        C947   1.083   1_455  S
O164        H953   0.992       .  S
H165        O952   0.992       .  S
C167        C168   1.402       .  A
C167        C172   1.414       .  A
C168        C169   1.405       .  A
C168        H173   1.083   1_545  S
C169        C170   1.414       .  A
C169        O174   1.371       .  S
C170        C171   1.402       .  A
C171        C172   1.406       .  A
C171        H175   1.084       .  S
C172        O176   1.371       .  S
O174        H178   0.992       .  S
O176        H177   0.991       .  S
C179        C180   1.407       .  A
C179        C184   1.406       .  A
C180        C181   1.401       .  A
C180        H185   1.084       .  S
C181        C182   1.404       .  A
C181        O186   1.372       .  S
C182        C183   1.403       .  A
C183        C184   1.394       .  A
C183        H187   1.082       .  S
C184        O188   1.372       .  S
O186        H190   0.991       .  S
O188        H189   0.992       .  S
C191        C192   1.400       .  A
C191        C196   1.400       .  A
C192        C193   1.391       .  A
C192        H197   1.082       .  S
C193        C194   1.407       .  A
C193        O198   1.372       .  S
C194        C195   1.408       .  A
C195        C196   1.394       .  A
C195        H199   1.084       .  S
C196        O200   1.372       .  S
O198        H202   0.992       .  S
O200        H201   0.990       .  S
C203        C204   1.409       .  A
C203        C208   1.407       .  A
C204        C205   1.400       .  A
C204        H209   1.084       .  S
C205        C206   1.401       .  A
C205        O210   1.373       .  S
C206        C207   1.400       .  A
C207        C208   1.393       .  A
C207        H211   1.082       .  S
C208        O212   1.372       .  S
O210        H214   0.991       .  S
O212        H213   0.992   1_545  S
C215        C216   1.410       .  A
C215        C220   1.407       .  A
C216        C217   1.408       .  A
C216        H221   1.083       .  S
C217        C218   1.408       .  A
C217        O222   1.371       .  S
C218        C219   1.410       .  A
C219        C220   1.407       .  A
C219        H223   1.083       .  S
C220        O224   1.372       .  S
O222        H226   0.992       .  S
O224        H225   0.992       .  S
C227        C228   1.409       .  A
C227        C232   1.406       .  A
C228        C229   1.402       .  A
C228        H233   1.083       .  S
C229        C230   1.405       .  A
C229        O234   1.371       .  S
C230        C231   1.409       .  A
C231        C232   1.404       .  A
C231        H235   1.083       .  S
C232        O236   1.372   1_545  S
O234        H238   0.992       .  S
O236        H237   0.992       .  S
C239        C240   1.408       .  A
C239        C244   1.408       .  A
C240        C241   1.403       .  A
C240        H245   1.083       .  S
C241        C242   1.406       .  A
C241        O246   1.372       .  S
C242        C243   1.409       .  A
C243        C244   1.407       .  A
C243        H247   1.083       .  S
C244        O248   1.371       .  S
O246        H250   0.992       .  S
O248        H249   0.992       .  S
C251        C252   1.398       .  A
C251        C256   1.414       .  A
C252        C253   1.395       .  A
C252        H257   1.084       .  S
C253        C254   1.409       .  A
C253        O258   1.372       .  S
C254        C255   1.399       .  A
C255        C256   1.398       .  A
C255        H259   1.083       .  S
C256        O260   1.372   1_455  S
O258        H262   0.992       .  S
O260        H261   0.992       .  S
C263        C264   1.403       .  A
C263        C268   1.403       .  A
C264        C265   1.393       .  A
C264        H269   1.084       .  S
C265        C266   1.405       .  A
C265        O270   1.372       .  S
C266        C267   1.407       .  A
C267        C268   1.396       .  A
C267        H271   1.084       .  S
C268        O272   1.372       .  S
O270        H274   0.992       .  S
O272        H273   0.992       .  S
C275        C276   1.397       .  A
C275        C280   1.409       .  A
C276        C277   1.396       .  A
C276        H281   1.084       .  S
C277        C278   1.413       .  A
C277        O676   1.372       .  S
C278        C279   1.398       .  A
C279        C280   1.394       .  A
C279        H283   1.084       .  S
C280        O284   1.373       .  S
O282        C671   1.372   1_545  S
O282        H286   0.992       .  S
O284        H285   0.992       .  S
C287        C288   1.401       .  A
C287        C292   1.413       .  A
C288        C289   1.405       .  A
C288        H293   1.084       .  S
C289        C290   1.413       .  A
C289        O294   1.372       .  S
C290        C291   1.400       .  A
C291        C292   1.407       .  A
C291        H295   1.083       .  S
C292        O296   1.373       .  S
O294        H298   0.991       .  S
O296        H297   0.992       .  S
C299        C300   1.410       .  A
C299        C304   1.408       .  A
C300        C301   1.409       .  A
C300        H305   1.083       .  S
C301        C302   1.408       .  A
C301        O306   1.371   1_455  S
C302        C303   1.411       .  A
C303        C304   1.407       .  A
C303        H307   1.083       .  S
C304        O308   1.371       .  S
O306        H310   0.991       .  S
O308        H309   0.991       .  S
C311        C312   1.402       .  A
C311        C316   1.413       .  A
C312        C313   1.406       .  A
C312        H317   1.084       .  S
C313        C314   1.413       .  A
C313       O1106   1.371   1_455  S
C314        C315   1.402       .  A
C315        C316   1.406       .  A
C315        H319   1.084       .  S
C316        O320   1.372       .  S
O318       C1101   1.371       .  S
O318        H322   0.992       .  S
O320        H321   0.992       .  S
C323        C324   1.398       .  A
C323        C328   1.407       .  A
C324        C325   1.396       .  A
C324        H329   1.084       .  S
C325        C326   1.412       .  A
C325        O330   1.372       .  S
C326        C327   1.398       .  A
C327        C328   1.390       .  A
C327        H331   1.084       .  S
C328        O332   1.371       .  S
O330        H334   0.992       .  S
O332        H333   0.992       .  S
C335        C336   1.402       .  A
C335        C340   1.404       .  A
C336        C337   1.391       .  A
C336        H341   1.084       .  S
C337        C338   1.406       .  A
C337        O342   1.372       .  S
C338        C339   1.406       .  A
C339        C340   1.397       .  A
C339        H343   1.084       .  S
C340        O344   1.372       .  S
O342        H346   0.992       .  S
O344        H345   0.992       .  S
C347        C348   1.397       .  A
C347        C352   1.415       .  A
C348        C349   1.389       .  A
C348        H353   1.084       .  S
C349        C350   1.408       .  A
C349        O354   1.369       .  S
C350        C351   1.401       .  A
C351        C352   1.402       .  A
C351        H355   1.083       .  S
C352        O356   1.372   1_455  S
O354        H358   0.992       .  S
O356        H357   0.992       .  S
C359        C360   1.411       .  A
C359        C364   1.407       .  A
C360        C361   1.407       .  A
C360        H365   1.083       .  S
C361        C362   1.407       .  A
C361        O366   1.371       .  S
C362        C363   1.410       .  A
C363        C364   1.408       .  A
C363        H367   1.083       .  S
C364       O1156   1.371   1_455  S
O366        H370   0.992       .  S
O368       C1152   1.371       .  S
O368        H369   0.992       .  S
C371        C372   1.403       .  A
C371        C376   1.414       .  A
C372        C373   1.409       .  A
C372        H377   1.084       .  S
C373        C374   1.413       .  A
C373        O378   1.373       .  S
C374        C375   1.402       .  A
C375        C376   1.410       .  A
C375        H379   1.084       .  S
C376        O380   1.374       .  S
O378        H382   0.992       .  S
O380        H381   0.992       .  S
C383        C384   1.408       .  A
C383        C388   1.405       .  A
C384        C385   1.403       .  A
C384        H389   1.084       .  S
C385        C386   1.405       .  A
C385        O784   1.371       .  S
C386        C387   1.409       .  A
C387        C388   1.403       .  A
C387       H1179   1.084       .  S
C388        O392   1.371       .  S
O390        C779   1.371   1_545  S
O390        H394   0.992       .  S
H391       C1175   1.084       .  S
O392       H1181   0.992       .  S
H393       O1180   0.992       .  S
C395        H396   1.113       .  S
C395        C401   1.512       .  S
C395        C400   1.509       .  S
C395        C399   1.513       .  S
C397        H398   1.111       .  S
C397        C403   1.566       .  S
C397        C402   1.564       .  S
C397        C404   1.564       .  S
C399        C402   1.371       .  D
C399        C729   1.470       .  S
C400        C403   1.370       .  D
C400        C744   1.477       .  S
C401        C404   1.371       .  D
C401        C717   1.467       .  S
C402        C768   1.497       .  S
C403        C777   1.489       .  S
C404        C756   1.499       .  S
C405        H406   1.112       .  S
C405        C411   1.511       .  S
C405        C410   1.508       .  S
C405        C409   1.509       .  S
C407        H408   1.111       .  S
C407        C413   1.565       .  S
C407        C412   1.562       .  S
C407        C414   1.565       .  S
C409        C412   1.370       .  D
C409        C657   1.470       .  S
C410        C413   1.371       .  D
C410        C648   1.475       .  S
C411        C414   1.374       .  D
C411        C669   1.470       .  S
C412        C681   1.491       .  S
C413        C705   1.491       .  S
C414        C693   1.502       .  S
C415       H1204   1.110       .  S
C415       C1208   1.549       .  S
C415        C813   1.551       .  S
H416       C1203   1.110       .  S
C417        H418   1.111       .  S
C417       C1211   1.549       .  S
C417        C816   1.548       .  S
C419        C809   1.552   1_565  S
C419        C422   1.377       .  D
C419        C780   1.494       .  S
C420       C1203   1.548       .  S
C420        C423   1.375       .  D
C420        C753   1.502       .  S
C421        C424   1.375       .  D
C421        C765   1.502       .  S
C422        C811   1.547   1_565  S
C422        C696   1.507       .  S
C423       C1205   1.549       .  S
C423        C708   1.494       .  S
C424        C684   1.494       .  S
C425        H426   1.110       .  S
C425        C431   1.562       .  S
C425        C430   1.565       .  S
C425        C429   1.566       .  S
C427        H428   1.114       .  S
C427        C433   1.508       .  S
C427        C432   1.512       .  S
C427        C434   1.512       .  S
C429        C432   1.374       .  D
C429        C636   1.494       .  S
C430        C433   1.370       .  D
C430        C624   1.491       .  S
C431        C434   1.368       .  D
C431        C609   1.501       .  S
C432        C576   1.476       .  S
C433        C600   1.472       .  S
C434        C585   1.460       .  S
C435        H436   1.111       .  S
C435        C441   1.563       .  S
C435        C440   1.565       .  S
C435        C439   1.562       .  S
C437        H438   1.113       .  S
C437        C443   1.512       .  S
C437        C442   1.516       .  S
C437        C444   1.515       .  S
C439        C442   1.370       .  D
C439        C564   1.496       .  S
C440        C443   1.371       .  D
C440        C537   1.487       .  S
C441        C444   1.370       .  D
C441        C549   1.498       .  S
C442        C501   1.469       .  S
C443        C513   1.478       .  S
C444        C525   1.468       .  S
C445        H446   1.111       .  S
C445        C451   1.548       .  S
C445        C844   1.547   1_455  S
C445       C1237   1.545   1_455  S
C447        H448   1.110       .  S
C447        C847   1.549   1_455  S
C447       C1240   1.550   1_455  S
C447        C454   1.549       .  S
C449       C1233   1.546       .  S
C449        C452   1.376       .  D
C449        C552   1.501       .  S
C450        C839   1.547   1_565  S
C450        C453   1.374       .  D
C450        C540   1.489       .  S
C451        C454   1.376       .  D
C451        C561   1.499       .  S
C452       C1235   1.549       .  S
C452        C621   1.494       .  S
C453        C841   1.549   1_565  S
C453        C612   1.505       .  S
C454        C633   1.498       .  S
Zn455       O459   1.866       .  S
Zn455       O460   1.946       .  S
Zn455       O858   1.943   1_455  S
Zn456       O459   1.920       .  S
Zn456      O1249   1.999   1_456  S
Zn456       O463   2.047       .  S
Zn456       O467   1.991   1_556  S
Zn457       O853   1.911   1_565  S
Zn457       O462   2.039       .  S
Zn457       O468   2.012   1_556  S
Zn458      O1254   1.999   1_456  S
Zn458       O470   2.043       .  S
O459       Zn851   1.913   1_455  S
O460        C472   1.263       .  A
O461      Zn1244   2.001   1_554  S
O461        C473   1.274       .  A
O462        C474   1.277       .  A
O463        C472   1.278       .  A
O464       Zn849   1.943   1_565  S
O464        C474   1.264       .  A
O465        C473   1.271       .  A
O466      Zn1246   2.000   1_554  S
O466        C475   1.273       .  A
O467        C476   1.272       .  A
O468        C475   1.275       .  A
O469        C476   1.273       .  A
O470        C477   1.278       .  A
O471        C477   1.263       .  A
C472        C645   1.469       .  S
C473        C528   1.472       .  S
C474        C660   1.467       .  S
C475        C516   1.477       .  S
C476        C504   1.469       .  S
C477        C672   1.466       .  S
Zn478      O1271   1.990   1_455  S
Zn478       O487   2.040       .  S
Zn479       O876   1.910       .  S
Zn479       O484   2.031       .  S
Zn479       O486   1.980       .  S
Zn480       O482   1.871       .  S
Zn480       O882   1.954       .  S
Zn480       O491   1.947   1_655  S
Zn481       O482   1.908   1_455  S
Zn481       O489   2.033       .  S
Zn481      O1280   1.999   1_455  S
Zn481       O493   1.990       .  S
O482       Zn873   1.909       .  S
O483      Zn1266   1.988       .  S
O483        C495   1.272       .  A
O484        C496   1.276       .  A
O485        C497   1.265       .  A
O486        C495   1.272       .  A
O487        C497   1.279       .  A
O488       Zn874   1.954       .  S
O488        C496   1.265       .  A
O489        C498   1.277       .  A
O490        C499   1.273       .  A
O491        C498   1.264       .  A
O492      Zn1269   1.999       .  S
O492        C499   1.273       .  A
O493        C500   1.272       .  A
O494        C500   1.274       .  A
C495        C588   1.468       .  S
C496        C732   1.466       .  S
C497        C741   1.469       .  S
C498        C720   1.461       .  S
C499        C597   1.473       .  S
C500        C573   1.473       .  S
C501        C502   1.398       .  A
C501        C506   1.405       .  A
C502        C503   1.399       .  A
C502        H507   1.084       .  S
C503        C504   1.414       .  A
C503        O508   1.372       .  S
C504        C505   1.399       .  A
C505        C506   1.390       .  A
C505        H509   1.084       .  S
C506        O510   1.369       .  S
O508        H512   0.992       .  S
O510        H511   0.991       .  S
C513        C514   1.399       .  A
C513        C518   1.408       .  A
C514        C515   1.401       .  A
C514        H519   1.084       .  S
C515        C516   1.416       .  A
C515        O520   1.372       .  S
C516        C517   1.400       .  A
C517        C518   1.395       .  A
C517        H521   1.084       .  S
C518        O522   1.369       .  S
O520        H524   0.992       .  S
O522        H523   0.991       .  S
C525        C526   1.396       .  A
C525        C530   1.405       .  A
C526        C527   1.396       .  A
C526        H531   1.084       .  S
C527        C528   1.416       .  A
C527        O532   1.372       .  S
C528        C529   1.401       .  A
C529        C530   1.392       .  A
C529        H533   1.084       .  S
C530        O534   1.370       .  S
O532        H536   0.992       .  S
O534       H1323   0.991       .  S
H535       O1322   0.991       .  S
C537        C538   1.402       .  A
C537        C542   1.410       .  A
C538        C539   1.404       .  A
C538        H543   1.083       .  S
C539        C540   1.411       .  A
C539        O544   1.371       .  S
C540        C541   1.401       .  A
C541        C542   1.405       .  A
C541        H545   1.083       .  S
C542        O546   1.372       .  S
O544        H548   0.991       .  S
O546        H547   0.992       .  S
C549        C550   1.403       .  A
C549        C554   1.414       .  A
C550        C551   1.407       .  A
C550        H555   1.083       .  S
C551        C552   1.414       .  A
C552        C553   1.403       .  A
C553        C554   1.407       .  A
C553       H1345   1.083       .  S
C554        O558   1.371       .  S
O556        H560   0.991       .  S
H557       C1341   1.083   1_455  S
O558       H1347   0.992       .  S
H559       O1346   0.992       .  S
C561        C562   1.402       .  A
C561        C566   1.415       .  A
C562        C563   1.405       .  A
C562        H567   1.083       .  S
C563        C564   1.413       .  A
C563        O568   1.371       .  S
C564        C565   1.403       .  A
C565        C566   1.407       .  A
C565        H569   1.084       .  S
C566        O570   1.372       .  S
O568        H572   0.992       .  S
O570        H571   0.991       .  S
C573        C574   1.408       .  A
C573        C578   1.406       .  A
C574        C575   1.402       .  A
C574        H579   1.084       .  S
C575        C576   1.405       .  A
C575        O580   1.372       .  S
C576        C577   1.402       .  A
C577        C578   1.394       .  A
C577        H581   1.082       .  S
C578        O582   1.372       .  S
O580        H584   0.991       .  S
O582        H583   0.992       .  S
C585        C586   1.399       .  A
C585        C590   1.399       .  A
C586        C587   1.391       .  A
C586        H591   1.082       .  S
C587        C588   1.408       .  A
C587        O592   1.372       .  S
C588        C589   1.408       .  A
C589        C590   1.395       .  A
C589        H593   1.084       .  S
C590        O594   1.373       .  S
O592        H596   0.992       .  S
O594        H595   0.991       .  S
C597        C598   1.409       .  A
C597        C602   1.406       .  A
C598        C599   1.400       .  A
C598        H603   1.084       .  S
C599        C600   1.402       .  A
C599        O604   1.373       .  S
C600        C601   1.402       .  A
C601        C602   1.393       .  A
C601        H605   1.082       .  S
C602        O606   1.372       .  S
O604        H608   0.991       .  S
O606        H607   0.992       .  S
C609        C610   1.410       .  A
C609        C614   1.407       .  A
C610        C611   1.408       .  A
C610        H615   1.083       .  S
C611        C612   1.407       .  A
C611        O616   1.371       .  S
C612        C613   1.410       .  A
C613        C614   1.407       .  A
C613        H617   1.083       .  S
C614        O618   1.371       .  S
O616        H620   0.992       .  S
O618        H619   0.992       .  S
C621        C622   1.408       .  A
C621        C626   1.406       .  A
C622        C623   1.402       .  A
C622        H627   1.083       .  S
C623        C624   1.405       .  A
C623        O628   1.371       .  S
C624        C625   1.409       .  A
C625        C626   1.404       .  A
C625        H629   1.083       .  S
C626        O630   1.372       .  S
O628        H632   0.992       .  S
O630        H631   0.992       .  S
C633        C634   1.408       .  A
C633        C638   1.407       .  A
C634        C635   1.403       .  A
C634        H639   1.083       .  S
C635        C636   1.406       .  A
C635        O640   1.371       .  S
C636        C637   1.409       .  A
C637        C638   1.407       .  A
C637        H641   1.083       .  S
C638        O642   1.371       .  S
O640        H644   0.992       .  S
O642        H643   0.992       .  S
C645        C646   1.398       .  A
C645        C650   1.414       .  A
C646        C647   1.395       .  A
C646        H651   1.084       .  S
C647        C648   1.410       .  A
C647        O652   1.372       .  S
C648        C649   1.399       .  A
C649        C650   1.397       .  A
C649        H653   1.083       .  S
C650        O654   1.372   1_455  S
O652        H656   0.992       .  S
O654        H655   0.992       .  S
C657        C658   1.403       .  A
C657        C662   1.403       .  A
C658        C659   1.393       .  A
C658        H663   1.084       .  S
C659        C660   1.405       .  A
C659        O664   1.372       .  S
C660        C661   1.407       .  A
C661        C662   1.396       .  A
C661        H665   1.084       .  S
C662        O666   1.372       .  S
O664        H668   0.992       .  S
O666        H667   0.992       .  S
C669        C670   1.397       .  A
C669        C674   1.409       .  A
C670        C671   1.395       .  A
C670        H675   1.084       .  S
C671        C672   1.414       .  A
C672        C673   1.398       .  A
C673        C674   1.393       .  A
C673        H677   1.084       .  S
C674        O678   1.373       .  S
O676        H680   0.992       .  S
O678        H679   0.992       .  S
C681        C682   1.401       .  A
C681        C686   1.413       .  A
C682        C683   1.405       .  A
C682        H687   1.084       .  S
C683        C684   1.413       .  A
C683        O688   1.372       .  S
C684        C685   1.400       .  A
C685        C686   1.406       .  A
C685        H689   1.083   1_565  S
C686        O690   1.373       .  S
O688        H692   0.991       .  S
O690        H691   0.992       .  S
C693        C694   1.409       .  A
C693        C698   1.408       .  A
C694        C695   1.409       .  A
C694        H699   1.083       .  S
C695        C696   1.407       .  A
C695        O700   1.371   1_455  S
C696        C697   1.411       .  A
C697        C698   1.407       .  A
C697        H701   1.083       .  S
C698        O702   1.371       .  S
O700        H704   0.991       .  S
O702        H703   0.991       .  S
C705        C706   1.402       .  A
C705        C710   1.413       .  A
C706        C707   1.405       .  A
C706        H711   1.084       .  S
C707        C708   1.412       .  A
C707       O1500   1.371   1_455  S
C708        C709   1.402       .  A
C709        C710   1.405       .  A
C709        H713   1.084       .  S
C710        O714   1.372       .  S
O712       C1495   1.371       .  S
O712        H716   0.992       .  S
O714        H715   0.992       .  S
C717        C718   1.399       .  A
C717        C722   1.407       .  A
C718        C719   1.397       .  A
C718        H723   1.084       .  S
C719        C720   1.412       .  A
C719        O724   1.372       .  S
C720        C721   1.397       .  A
C721        C722   1.389       .  A
C721        H725   1.084       .  S
C722        O726   1.371       .  S
O724        H728   0.992       .  S
O726        H727   0.992       .  S
C729        C730   1.401       .  A
C729        C734   1.405       .  A
C730        C731   1.392       .  A
C730        H735   1.084       .  S
C731        C732   1.405       .  A
C731        O736   1.372       .  S
C732        C733   1.406       .  A
C733        C734   1.398       .  A
C733        H737   1.084   1_565  S
C734        O738   1.372       .  S
O736        H740   0.992       .  S
O738        H739   0.992       .  S
C741        C742   1.397       .  A
C741        C746   1.414       .  A
C742        C743   1.389       .  A
C742        H747   1.084       .  S
C743        C744   1.406       .  A
C743        O748   1.368       .  S
C744        C745   1.402       .  A
C745        C746   1.402       .  A
C745        H749   1.084       .  S
C746        O750   1.372   1_455  S
O748        H752   0.992       .  S
O750        H751   0.992       .  S
C753        C754   1.410       .  A
C753        C758   1.407       .  A
C754        C755   1.407       .  A
C754        H759   1.083       .  S
C755        C756   1.407       .  A
C755        O760   1.371       .  S
C756        C757   1.410       .  A
C757        C758   1.408       .  A
C757        H761   1.083       .  S
C758       O1550   1.371   1_455  S
O760        H764   0.992       .  S
O762       C1546   1.371       .  S
O762        H763   0.992       .  S
C765        C766   1.403       .  A
C765        C770   1.414       .  A
C766        C767   1.409       .  A
C766        H771   1.084       .  S
C767        C768   1.413       .  A
C767        O772   1.373       .  S
C768        C769   1.402       .  A
C769        C770   1.410       .  A
C769        H773   1.084       .  S
C770        O774   1.374   1_565  S
O772        H776   0.992       .  S
O774        H775   0.992       .  S
C777        C778   1.408       .  A
C777        C782   1.405       .  A
C778        C779   1.403       .  A
C778        H783   1.084       .  S
C779        C780   1.405       .  A
C780        C781   1.410       .  A
C781        C782   1.404       .  A
C781       H1573   1.084       .  S
C782        O786   1.372       .  S
O784        H788   0.992       .  S
H785       C1569   1.084       .  S
O786       H1575   0.992       .  S
H787       O1574   0.992       .  S
C789        H790   1.113       .  S
C789        C795   1.511       .  S
C789        C794   1.510       .  S
C789        C793   1.513       .  S
C791        H792   1.110       .  S
C791        C797   1.566       .  S
C791        C796   1.563       .  S
C791        C798   1.565       .  S
C793        C796   1.371       .  D
C793       C1123   1.470       .  S
C794        C797   1.371       .  D
C794       C1138   1.478       .  S
C795        C798   1.370       .  D
C795       C1111   1.467       .  S
C796       C1162   1.496       .  S
C797       C1171   1.489       .  S
C798       C1150   1.500       .  S
C799        H800   1.112       .  S
C799        C805   1.512       .  S
C799        C804   1.508       .  S
C799        C803   1.510       .  S
C801        H802   1.111       .  S
C801        C807   1.566       .  S
C801        C806   1.563       .  S
C801        C808   1.565       .  S
C803        C806   1.370       .  D
C803       C1051   1.472       .  S
C804        C807   1.371       .  D
C804       C1042   1.474       .  S
C805        C808   1.374       .  D
C805       C1063   1.469       .  S
C806       C1075   1.491       .  S
C807       C1099   1.493       .  S
C808       C1087   1.503       .  S
C809       C1209   1.547   1_445  S
C811        H812   1.111       .  S
C811       C1212   1.550   1_445  S
C813        C816   1.378       .  D
C813       C1174   1.494       .  S
C814        C817   1.375       .  D
C814       C1147   1.504       .  S
C815       C1203   1.546   1_655  S
C815        C818   1.375       .  D
C815       C1159   1.501       .  S
C816       C1090   1.508       .  S
C817       C1102   1.495       .  S
C818       C1205   1.550   1_655  S
C818       C1078   1.494       .  S
C819        H820   1.110       .  S
C819        C825   1.562       .  S
C819        C824   1.564       .  S
C819        C823   1.565       .  S
C821        H822   1.114       .  S
C821        C827   1.510       .  S
C821        C826   1.512       .  S
C821        C828   1.512       .  S
C823        C826   1.373       .  D
C823       C1030   1.494       .  S
C824        C827   1.372       .  D
C824       C1018   1.490       .  S
C825        C828   1.368       .  D
C825       C1003   1.500       .  S
C826        C970   1.475       .  S
C827        C994   1.474       .  S
C828        C979   1.461       .  S
C829        H830   1.111       .  S
C829        C835   1.562       .  S
C829        C834   1.564       .  S
C829        C833   1.561       .  S
C831        H832   1.113       .  S
C831        C837   1.513       .  S
C831        C836   1.516       .  S
C831        C838   1.516       .  S
C833        C836   1.369       .  D
C833        C958   1.495       .  S
C834        C837   1.372       .  D
C834        C931   1.488       .  S
C835        C838   1.370       .  D
C835        C943   1.498       .  S
C836        C895   1.469       .  S
C837        C907   1.478       .  S
C838        C919   1.468       .  S
C839        H840   1.111       .  S
C839        C845   1.546       .  S
C841        H842   1.110       .  S
C841        C848   1.548       .  S
C843        C846   1.376       .  D
C843        C946   1.501       .  S
C844        C847   1.374       .  D
C844        C934   1.491       .  S
C845        C848   1.376       .  D
C845        C955   1.497       .  S
C846       C1015   1.493       .  S
C847       C1006   1.504       .  S
C848       C1027   1.498       .  S
Zn849       O853   1.866       .  S
Zn849       O854   1.949       .  S
Zn849      O1259   1.942   1_545  S
Zn850       O853   1.919       .  S
Zn850       O857   2.047       .  S
Zn850       O861   1.992   1_556  S
Zn851       O856   2.043       .  S
Zn851      O1253   1.981   1_556  S
Zn851       O862   2.013   1_556  S
Zn852      O1247   1.915       .  S
Zn852      O1257   1.990   1_556  S
Zn852       O864   2.046       .  S
O853      Zn1246   1.913   1_545  S
O854        C866   1.263       .  A
O855        C867   1.274       .  A
O856        C868   1.277       .  A
O857        C866   1.278       .  A
O858        C868   1.264       .  A
O859      Zn1245   1.981   1_544  S
O859        C867   1.271       .  A
O860        C869   1.272       .  A
O861        C870   1.272       .  A
O862        C869   1.275       .  A
O863      Zn1246   1.990   1_544  S
O863        C870   1.273       .  A
O864        C871   1.278       .  A
O865      Zn1243   1.939       .  S
O865        C871   1.263       .  A
C866       C1039   1.470       .  S
C867        C922   1.473       .  S
C868       C1054   1.468       .  S
C869        C910   1.478       .  S
C870        C898   1.471       .  S
C871       C1066   1.465       .  S
Zn872      O1270   1.909       .  S
Zn872       O881   2.040       .  S
Zn872      O1282   2.009       .  S
Zn873       O878   2.031       .  S
Zn873       O880   1.981       .  S
Zn873      O1278   1.997       .  S
Zn874       O876   1.872       .  S
Zn874      O1273   1.961       .  S
Zn874       O885   1.950   1_565  S
Zn875       O876   1.909   1_545  S
Zn875       O883   2.035       .  S
Zn875       O887   1.992       .  S
O876      Zn1266   1.911       .  S
O877        C889   1.272       .  A
O878        C890   1.276       .  A
O879      Zn1268   1.958       .  S
O879        C891   1.264       .  A
O880        C889   1.272       .  A
O881        C891   1.279       .  A
O882        C890   1.265       .  A
O883        C892   1.277       .  A
O884      Zn1267   1.997   1_545  S
O884        C893   1.273       .  A
O885        C892   1.264       .  A
O886        C893   1.273       .  A
O887        C894   1.272       .  A
O888      Zn1266   2.010   1_545  S
O888        C894   1.274       .  A
C889        C982   1.468       .  S
C890       C1126   1.466       .  S
C891       C1135   1.471       .  S
C892       C1114   1.462       .  S
C893        C991   1.471       .  S
C894        C967   1.473       .  S
C895        C896   1.397       .  A
C895        C900   1.404       .  A
C896        C897   1.398       .  A
C896        H901   1.084       .  S
C897        C898   1.414       .  A
C897        O902   1.372       .  S
C898        C899   1.400       .  A
C899        C900   1.391       .  A
C899        H903   1.084       .  S
C900        O904   1.369       .  S
O902        H906   0.992       .  S
O904        H905   0.991       .  S
C907        C908   1.398       .  A
C907        C912   1.407       .  A
C908        C909   1.400       .  A
C908        H913   1.084       .  S
C909        C910   1.416       .  A
C909        O914   1.372   1_655  S
C910        C911   1.400       .  A
C911        C912   1.395       .  A
C911        H915   1.084       .  S
C912        O916   1.369       .  S
O914        H918   0.992       .  S
O916        H917   0.992       .  S
C919        C920   1.395       .  A
C919        C924   1.405       .  A
C920        C921   1.396       .  A
C920        H925   1.084       .  S
C921        C922   1.416       .  A
C921        O926   1.372   1_545  S
C922        C923   1.402       .  A
C923        C924   1.393       .  A
C923        H927   1.084       .  S
C924        O928   1.370       .  S
O926        H930   0.992       .  S
C931        C932   1.402       .  A
C931        C936   1.410       .  A
C932        C933   1.404       .  A
C932        H937   1.083       .  S
C933        C934   1.411       .  A
C933        O938   1.371   1_655  S
C934        C935   1.402       .  A
C935        C936   1.406       .  A
C935        H939   1.083       .  S
C936        O940   1.372       .  S
O938        H942   0.991       .  S
O940        H941   0.991       .  S
C943        C944   1.403       .  A
C943        C948   1.413       .  A
C944        C945   1.407       .  A
C944        H949   1.083       .  S
C945        C946   1.413       .  A
C945       O1344   1.371   1_545  S
C946        C947   1.403       .  A
C947        C948   1.407       .  A
C948        O952   1.371       .  S
O950       C1339   1.371       .  S
O950        H954   0.991       .  S
C955        C956   1.401       .  A
C955        C960   1.414       .  A
C956        C957   1.405       .  A
C956        H961   1.083   1_545  S
C957        C958   1.413       .  A
C957        O962   1.371       .  S
C958        C959   1.402       .  A
C959        C960   1.406       .  A
C959        H963   1.084       .  S
C960        O964   1.371       .  S
O962        H966   0.991       .  S
O964        H965   0.991       .  S
C967        C968   1.408       .  A
C967        C972   1.406       .  A
C968        C969   1.401       .  A
C968        H973   1.084       .  S
C969        C970   1.405       .  A
C969        O974   1.372       .  S
C970        C971   1.402       .  A
C971        C972   1.394       .  A
C971        H975   1.082       .  S
C972        O976   1.372       .  S
O974        H978   0.991       .  S
O976        H977   0.992       .  S
C979        C980   1.400       .  A
C979        C984   1.400       .  A
C980        C981   1.391       .  A
C980        H985   1.083       .  S
C981        C982   1.407       .  A
C981        O986   1.372       .  S
C982        C983   1.408       .  A
C983        C984   1.395       .  A
C983        H987   1.083       .  S
C984        O988   1.373       .  S
O986        H990   0.992   1_655  S
O988        H989   0.991       .  S
C991        C992   1.408       .  A
C991        C996   1.405       .  A
C992        C993   1.400       .  A
C992        H997   1.084   1_655  S
C993        C994   1.404       .  A
C993        O998   1.372       .  S
C994        C995   1.403       .  A
C995        C996   1.393       .  A
C995        H999   1.082       .  S
C996       O1000   1.372       .  S
O998       H1002   0.991       .  S
O1000      H1001   0.992   1_545  S
C1003      C1004   1.410       .  A
C1003      C1008   1.407       .  A
C1004      C1005   1.409       .  A
C1004      H1009   1.083       .  S
C1005      C1006   1.408       .  A
C1005      O1010   1.371   1_655  S
C1006      C1007   1.410       .  A
C1007      C1008   1.407       .  A
C1007      H1011   1.083       .  S
C1008      O1012   1.372       .  S
O1010      H1014   0.992       .  S
O1012      H1013   0.992       .  S
C1015      C1016   1.408       .  A
C1015      C1020   1.406       .  A
C1016      C1017   1.402       .  A
C1016      H1021   1.083       .  S
C1017      C1018   1.405       .  A
C1017      O1022   1.372       .  S
C1018      C1019   1.409       .  A
C1019      C1020   1.403       .  A
C1019      H1023   1.083       .  S
C1020      O1024   1.372   1_545  S
O1022      H1026   0.992       .  S
O1024      H1025   0.992       .  S
C1027      C1028   1.408       .  A
C1027      C1032   1.407       .  A
C1028      C1029   1.403       .  A
C1028      H1033   1.083       .  S
C1029      C1030   1.406       .  A
C1029      O1034   1.372       .  S
C1030      C1031   1.409       .  A
C1031      C1032   1.406       .  A
C1031      H1035   1.083       .  S
C1032      O1036   1.371       .  S
O1034      H1038   0.992       .  S
O1036      H1037   0.992       .  S
C1039      C1040   1.398       .  A
C1039      C1044   1.414       .  A
C1040      C1041   1.395       .  A
C1040      H1045   1.084       .  S
C1041      C1042   1.409       .  A
C1041      O1046   1.372       .  S
C1042      C1043   1.399       .  A
C1043      C1044   1.397       .  A
C1043      H1047   1.083       .  S
C1044      O1048   1.372       .  S
O1046      H1050   0.992       .  S
O1048      H1049   0.992       .  S
C1051      C1052   1.404       .  A
C1051      C1056   1.403       .  A
C1052      C1053   1.393       .  A
C1052      H1057   1.084       .  S
C1053      C1054   1.405       .  A
C1053      O1058   1.372       .  S
C1054      C1055   1.407       .  A
C1055      C1056   1.396       .  A
C1055      H1059   1.084       .  S
C1056      O1060   1.372       .  S
O1058      H1062   0.992       .  S
O1060      H1061   0.992       .  S
C1063      C1064   1.397       .  A
C1063      C1068   1.409       .  A
C1064      C1065   1.395       .  A
C1064      H1069   1.084       .  S
C1065      C1066   1.413       .  A
C1065      O1464   1.372       .  S
C1066      C1067   1.398       .  A
C1067      C1068   1.394       .  A
C1067      H1071   1.084       .  S
C1068      O1072   1.373       .  S
O1070      C1459   1.372   1_545  S
O1070      H1074   0.992       .  S
O1072      H1073   0.992       .  S
C1075      C1076   1.401       .  A
C1075      C1080   1.413       .  A
C1076      C1077   1.405       .  A
C1076      H1081   1.084       .  S
C1077      C1078   1.413       .  A
C1077      O1082   1.372       .  S
C1078      C1079   1.401       .  A
C1079      C1080   1.406       .  A
C1079      H1083   1.083       .  S
C1080      O1084   1.373       .  S
O1082      H1086   0.991       .  S
O1084      H1085   0.992       .  S
C1087      C1088   1.410       .  A
C1087      C1092   1.409       .  A
C1088      C1089   1.409       .  A
C1088      H1093   1.083       .  S
C1089      C1090   1.408       .  A
C1089      O1094   1.371       .  S
C1090      C1091   1.411       .  A
C1091      C1092   1.407       .  A
C1091      H1095   1.083       .  S
C1092      O1096   1.371       .  S
O1094      H1098   0.991       .  S
O1096      H1097   0.991       .  S
C1099      C1100   1.402       .  A
C1099      C1104   1.413       .  A
C1100      C1101   1.406       .  A
C1100      H1105   1.084       .  S
C1101      C1102   1.413       .  A
C1102      C1103   1.402       .  A
C1103      C1104   1.406       .  A
C1103      H1107   1.084       .  S
C1104      O1108   1.371       .  S
O1106      H1110   0.992       .  S
O1108      H1109   0.992       .  S
C1111      C1112   1.398       .  A
C1111      C1116   1.407       .  A
C1112      C1113   1.397       .  A
C1112      H1117   1.084       .  S
C1113      C1114   1.412       .  A
C1113      O1118   1.372       .  S
C1114      C1115   1.398       .  A
C1115      C1116   1.390       .  A
C1115      H1119   1.084       .  S
C1116      O1120   1.371       .  S
O1118      H1122   0.992       .  S
O1120      H1121   0.992       .  S
C1123      C1124   1.402       .  A
C1123      C1128   1.405       .  A
C1124      C1125   1.391       .  A
C1124      H1129   1.084       .  S
C1125      C1126   1.406       .  A
C1125      O1130   1.372       .  S
C1126      C1127   1.406       .  A
C1127      C1128   1.398       .  A
C1127      H1131   1.084       .  S
C1128      O1132   1.372       .  S
O1130      H1134   0.992       .  S
O1132      H1133   0.992       .  S
C1135      C1136   1.397       .  A
C1135      C1140   1.415       .  A
C1136      C1137   1.389       .  A
C1136      H1141   1.084       .  S
C1137      C1138   1.407       .  A
C1137      O1142   1.369       .  S
C1138      C1139   1.401       .  A
C1139      C1140   1.402       .  A
C1139      H1143   1.083       .  S
C1140      O1144   1.372       .  S
O1142      H1146   0.992       .  S
O1144      H1145   0.992       .  S
C1147      C1148   1.410       .  A
C1147      C1152   1.407       .  A
C1148      C1149   1.407       .  A
C1148      H1153   1.083       .  S
C1149      C1150   1.407       .  A
C1149      O1154   1.371       .  S
C1150      C1151   1.410       .  A
C1151      C1152   1.408       .  A
C1151      H1155   1.083       .  S
O1154      H1158   0.992       .  S
O1156      H1157   0.992       .  S
C1159      C1160   1.403       .  A
C1159      C1164   1.414       .  A
C1160      C1161   1.408       .  A
C1160      H1165   1.084       .  S
C1161      C1162   1.413       .  A
C1161      O1166   1.373       .  S
C1162      C1163   1.402       .  A
C1163      C1164   1.410       .  A
C1163      H1167   1.084       .  S
C1164      O1168   1.374       .  S
O1166      H1170   0.992       .  S
O1168      H1169   0.992       .  S
C1171      C1172   1.408       .  A
C1171      C1176   1.405       .  A
C1172      C1173   1.403       .  A
C1172      H1177   1.084       .  S
C1173      C1174   1.405       .  A
C1173      O1572   1.371       .  S
C1174      C1175   1.409       .  A
C1175      C1176   1.404       .  A
C1176      O1180   1.371       .  S
O1178      C1567   1.371   1_545  S
O1178      H1182   0.992       .  S
C1183      H1184   1.113       .  S
C1183      C1189   1.511       .  S
C1183      C1188   1.509       .  S
C1183      C1187   1.513       .  S
C1185      H1186   1.110       .  S
C1185      C1191   1.567       .  S
C1185      C1190   1.564       .  S
C1185      C1192   1.565       .  S
C1187      C1190   1.371       .  D
C1187      C1517   1.468       .  S
C1188      C1191   1.371       .  D
C1188      C1532   1.478       .  S
C1189      C1192   1.370       .  D
C1189      C1505   1.467       .  S
C1190      C1556   1.498       .  S
C1191      C1565   1.489       .  S
C1192      C1544   1.499       .  S
C1193      H1194   1.112       .  S
C1193      C1199   1.512       .  S
C1193      C1198   1.509       .  S
C1193      C1197   1.510       .  S
C1195      H1196   1.111       .  S
C1195      C1201   1.565       .  S
C1195      C1200   1.563       .  S
C1195      C1202   1.565       .  S
C1197      C1200   1.370       .  D
C1197      C1445   1.472       .  S
C1198      C1201   1.371       .  D
C1198      C1436   1.475       .  S
C1199      C1202   1.374       .  D
C1199      C1457   1.471       .  S
C1200      C1469   1.490       .  S
C1201      C1493   1.491       .  S
C1202      C1481   1.502       .  S
C1205      H1206   1.111       .  S
C1207      C1210   1.378       .  D
C1207      C1568   1.493       .  S
C1208      C1211   1.375       .  D
C1208      C1541   1.504       .  S
C1209      C1212   1.375       .  D
C1209      C1553   1.504       .  S
C1210      C1484   1.508       .  S
C1211      C1496   1.495       .  S
C1212      C1472   1.493       .  S
C1213      H1214   1.110       .  S
C1213      C1219   1.562       .  S
C1213      C1218   1.564       .  S
C1213      C1217   1.565       .  S
C1215      H1216   1.114       .  S
C1215      C1221   1.509       .  S
C1215      C1220   1.511       .  S
C1215      C1222   1.511       .  S
C1217      C1220   1.374       .  D
C1217      C1424   1.494       .  S
C1218      C1221   1.370       .  D
C1218      C1412   1.491       .  S
C1219      C1222   1.368       .  D
C1219      C1397   1.500       .  S
C1220      C1364   1.475       .  S
C1221      C1388   1.471       .  S
C1222      C1373   1.462       .  S
C1223      H1224   1.111       .  S
C1223      C1229   1.561       .  S
C1223      C1228   1.564       .  S
C1223      C1227   1.561       .  S
C1225      H1226   1.113       .  S
C1225      C1231   1.513       .  S
C1225      C1230   1.516       .  S
C1225      C1232   1.516       .  S
C1227      C1230   1.370       .  D
C1227      C1352   1.495       .  S
C1228      C1231   1.371       .  D
C1228      C1325   1.487       .  S
C1229      C1232   1.370       .  D
C1229      C1337   1.496       .  S
C1230      C1289   1.469       .  S
C1231      C1301   1.478       .  S
C1232      C1313   1.467       .  S
C1233      H1234   1.111       .  S
C1233      C1239   1.547       .  S
C1235      H1236   1.110       .  S
C1235      C1242   1.548       .  S
C1237      C1240   1.376       .  D
C1237      C1340   1.499       .  S
C1238      C1241   1.374       .  D
C1238      C1328   1.490       .  S
C1239      C1242   1.377       .  D
C1239      C1349   1.497       .  S
C1240      C1409   1.495       .  S
C1241      C1400   1.504       .  S
C1242      C1421   1.498       .  S
Zn1243     O1247   1.866       .  S
Zn1243     O1248   1.950       .  S
Zn1244     O1247   1.918       .  S
Zn1244     O1251   2.048       .  S
Zn1244     O1255   1.991   1_556  S
Zn1245     O1250   2.040       .  S
Zn1245     O1256   2.012   1_556  S
Zn1246     O1258   2.044       .  S
O1248      C1260   1.264       .  A
O1249      C1261   1.274       .  A
O1250      C1262   1.277       .  A
O1251      C1260   1.278       .  A
O1252      C1262   1.264       .  A
O1253      C1261   1.271       .  A
O1254      C1263   1.272       .  A
O1255      C1264   1.272       .  A
O1256      C1263   1.275       .  A
O1257      C1264   1.273       .  A
O1258      C1265   1.278       .  A
O1259      C1265   1.263       .  A
C1260      C1433   1.469       .  S
C1261      C1316   1.472       .  S
C1262      C1448   1.468       .  S
C1263      C1304   1.477       .  S
C1264      C1292   1.470       .  S
C1265      C1460   1.466       .  S
Zn1266     O1275   2.041       .  S
Zn1267     O1272   2.027       .  S
Zn1267     O1274   1.976       .  S
Zn1268     O1270   1.870       .  S
Zn1268     O1279   1.949       .  S
Zn1269     O1270   1.906       .  S
Zn1269     O1277   2.032       .  S
Zn1269     O1281   1.989       .  S
O1271      C1283   1.272       .  A
O1272      C1284   1.276       .  A
O1273      C1285   1.265       .  A
O1274      C1283   1.271       .  A
O1275      C1285   1.279       .  A
O1276      C1284   1.264       .  A
O1277      C1286   1.277       .  A
O1278      C1287   1.273       .  A
O1279      C1286   1.264       .  A
O1280      C1287   1.273       .  A
O1281      C1288   1.272       .  A
O1282      C1288   1.274       .  A
C1283      C1376   1.467       .  S
C1284      C1520   1.464       .  S
C1285      C1529   1.470       .  S
C1286      C1508   1.461       .  S
C1287      C1385   1.472       .  S
C1288      C1361   1.473       .  S
C1289      C1290   1.397       .  A
C1289      C1294   1.404       .  A
C1290      C1291   1.398       .  A
C1290      H1295   1.084       .  S
C1291      C1292   1.414       .  A
C1291      O1296   1.372       .  S
C1292      C1293   1.400       .  A
C1293      C1294   1.391       .  A
C1293      H1297   1.084       .  S
C1294      O1298   1.369       .  S
O1296      H1300   0.992       .  S
O1298      H1299   0.991       .  S
C1301      C1302   1.399       .  A
C1301      C1306   1.407       .  A
C1302      C1303   1.401       .  A
C1302      H1307   1.084       .  S
C1303      C1304   1.416       .  A
C1303      O1308   1.372   1_655  S
C1304      C1305   1.400       .  A
C1305      C1306   1.394       .  A
C1305      H1309   1.084       .  S
C1306      O1310   1.369       .  S
O1308      H1312   0.992       .  S
O1310      H1311   0.991       .  S
C1313      C1314   1.395       .  A
C1313      C1318   1.405       .  A
C1314      C1315   1.396       .  A
C1314      H1319   1.084       .  S
C1315      C1316   1.416       .  A
C1315      O1320   1.372       .  S
C1316      C1317   1.402       .  A
C1317      C1318   1.393       .  A
C1317      H1321   1.084       .  S
C1318      O1322   1.370       .  S
O1320      H1324   0.992       .  S
C1325      C1326   1.402       .  A
C1325      C1330   1.410       .  A
C1326      C1327   1.404       .  A
C1326      H1331   1.083       .  S
C1327      C1328   1.411       .  A
C1327      O1332   1.371   1_655  S
C1328      C1329   1.401       .  A
C1329      C1330   1.405       .  A
C1329      H1333   1.083       .  S
C1330      O1334   1.372       .  S
O1332      H1336   0.991       .  S
O1334      H1335   0.991       .  S
C1337      C1338   1.403       .  A
C1337      C1342   1.413       .  A
C1338      C1339   1.407       .  A
C1338      H1343   1.084       .  S
C1339      C1340   1.414       .  A
C1340      C1341   1.402       .  A
C1341      C1342   1.406       .  A
C1342      O1346   1.371       .  S
O1344      H1348   0.991       .  S
C1349      C1350   1.402       .  A
C1349      C1354   1.414       .  A
C1350      C1351   1.406       .  A
C1350      H1355   1.083       .  S
C1351      C1352   1.413       .  A
C1351      O1356   1.371       .  S
C1352      C1353   1.402       .  A
C1353      C1354   1.406       .  A
C1353      H1357   1.084       .  S
C1354      O1358   1.371       .  S
O1356      H1360   0.992       .  S
O1358      H1359   0.991       .  S
C1361      C1362   1.408       .  A
C1361      C1366   1.407       .  A
C1362      C1363   1.401       .  A
C1362      H1367   1.084       .  S
C1363      C1364   1.404       .  A
C1363      O1368   1.372       .  S
C1364      C1365   1.402       .  A
C1365      C1366   1.394       .  A
C1365      H1369   1.082       .  S
C1366      O1370   1.372       .  S
O1368      H1372   0.991       .  S
O1370      H1371   0.992       .  S
C1373      C1374   1.400       .  A
C1373      C1378   1.400       .  A
C1374      C1375   1.392       .  A
C1374      H1379   1.082       .  S
C1375      C1376   1.407       .  A
C1375      O1380   1.372       .  S
C1376      C1377   1.408       .  A
C1377      C1378   1.394       .  A
C1377      H1381   1.084       .  S
C1378      O1382   1.372       .  S
O1380      H1384   0.992   1_655  S
O1382      H1383   0.991       .  S
C1385      C1386   1.409       .  A
C1385      C1390   1.406       .  A
C1386      C1387   1.400       .  A
C1386      H1391   1.084   1_655  S
C1387      C1388   1.402       .  A
C1387      O1392   1.372       .  S
C1388      C1389   1.401       .  A
C1389      C1390   1.393       .  A
C1389      H1393   1.082       .  S
C1390      O1394   1.372       .  S
O1392      H1396   0.991       .  S
O1394      H1395   0.992       .  S
C1397      C1398   1.410       .  A
C1397      C1402   1.408       .  A
C1398      C1399   1.408       .  A
C1398      H1403   1.083       .  S
C1399      C1400   1.407       .  A
C1399      O1404   1.371   1_655  S
C1400      C1401   1.410       .  A
C1401      C1402   1.407       .  A
C1401      H1405   1.083       .  S
C1402      O1406   1.372       .  S
O1404      H1408   0.992       .  S
O1406      H1407   0.992       .  S
C1409      C1410   1.409       .  A
C1409      C1414   1.406       .  A
C1410      C1411   1.403       .  A
C1410      H1415   1.083       .  S
C1411      C1412   1.405       .  A
C1411      O1416   1.371       .  S
C1412      C1413   1.409       .  A
C1413      C1414   1.404       .  A
C1413      H1417   1.083       .  S
C1414      O1418   1.372       .  S
O1416      H1420   0.992       .  S
O1418      H1419   0.992       .  S
C1421      C1422   1.408       .  A
C1421      C1426   1.407       .  A
C1422      C1423   1.403       .  A
C1422      H1427   1.083       .  S
C1423      C1424   1.406       .  A
C1423      O1428   1.372       .  S
C1424      C1425   1.409       .  A
C1425      C1426   1.406       .  A
C1425      H1429   1.083       .  S
C1426      O1430   1.371       .  S
O1428      H1432   0.992       .  S
O1430      H1431   0.992       .  S
C1433      C1434   1.398       .  A
C1433      C1438   1.413       .  A
C1434      C1435   1.395       .  A
C1434      H1439   1.084       .  S
C1435      C1436   1.409       .  A
C1435      O1440   1.373       .  S
C1436      C1437   1.399       .  A
C1437      C1438   1.398       .  A
C1437      H1441   1.083       .  S
C1438      O1442   1.372       .  S
O1440      H1444   0.992       .  S
O1442      H1443   0.992       .  S
C1445      C1446   1.403       .  A
C1445      C1450   1.403       .  A
C1446      C1447   1.393       .  A
C1446      H1451   1.084       .  S
C1447      C1448   1.405       .  A
C1447      O1452   1.372       .  S
C1448      C1449   1.407       .  A
C1449      C1450   1.397       .  A
C1449      H1453   1.084       .  S
C1450      O1454   1.372       .  S
O1452      H1456   0.992       .  S
O1454      H1455   0.992       .  S
C1457      C1458   1.398       .  A
C1457      C1462   1.409       .  A
C1458      C1459   1.397       .  A
C1458      H1463   1.084       .  S
C1459      C1460   1.414       .  A
C1460      C1461   1.398       .  A
C1461      C1462   1.393       .  A
C1461      H1465   1.084       .  S
C1462      O1466   1.373       .  S
O1464      H1468   0.992       .  S
O1466      H1467   0.992       .  S
C1469      C1470   1.401       .  A
C1469      C1474   1.413       .  A
C1470      C1471   1.405       .  A
C1470      H1475   1.084       .  S
C1471      C1472   1.413       .  A
C1471      O1476   1.372       .  S
C1472      C1473   1.400       .  A
C1473      C1474   1.406       .  A
C1473      H1477   1.083   1_565  S
C1474      O1478   1.373       .  S
O1476      H1480   0.991       .  S
O1478      H1479   0.992       .  S
C1481      C1482   1.410       .  A
C1481      C1486   1.408       .  A
C1482      C1483   1.409       .  A
C1482      H1487   1.083       .  S
C1483      C1484   1.408       .  A
C1483      O1488   1.371       .  S
C1484      C1485   1.411       .  A
C1485      C1486   1.407       .  A
C1485      H1489   1.083       .  S
C1486      O1490   1.371       .  S
O1488      H1492   0.991       .  S
O1490      H1491   0.991       .  S
C1493      C1494   1.402       .  A
C1493      C1498   1.412       .  A
C1494      C1495   1.405       .  A
C1494      H1499   1.084       .  S
C1495      C1496   1.413       .  A
C1496      C1497   1.402       .  A
C1497      C1498   1.405       .  A
C1497      H1501   1.084       .  S
C1498      O1502   1.372       .  S
O1500      H1504   0.992       .  S
O1502      H1503   0.992       .  S
C1505      C1506   1.399       .  A
C1505      C1510   1.406       .  A
C1506      C1507   1.397       .  A
C1506      H1511   1.084       .  S
C1507      C1508   1.412       .  A
C1507      O1512   1.372       .  S
C1508      C1509   1.398       .  A
C1509      C1510   1.389       .  A
C1509      H1513   1.084       .  S
C1510      O1514   1.371       .  S
O1512      H1516   0.992       .  S
O1514      H1515   0.992       .  S
C1517      C1518   1.402       .  A
C1517      C1522   1.404       .  A
C1518      C1519   1.391       .  A
C1518      H1523   1.084       .  S
C1519      C1520   1.405       .  A
C1519      O1524   1.372       .  S
C1520      C1521   1.406       .  A
C1521      C1522   1.397       .  A
C1521      H1525   1.084   1_565  S
C1522      O1526   1.372       .  S
O1524      H1528   0.992       .  S
O1526      H1527   0.992       .  S
C1529      C1530   1.397       .  A
C1529      C1534   1.414       .  A
C1530      C1531   1.389       .  A
C1530      H1535   1.084       .  S
C1531      C1532   1.407       .  A
C1531      O1536   1.369       .  S
C1532      C1533   1.401       .  A
C1533      C1534   1.402       .  A
C1533      H1537   1.084       .  S
C1534      O1538   1.372       .  S
O1536      H1540   0.992       .  S
O1538      H1539   0.992       .  S
C1541      C1542   1.410       .  A
C1541      C1546   1.407       .  A
C1542      C1543   1.406       .  A
C1542      H1547   1.083       .  S
C1543      C1544   1.406       .  A
C1543      O1548   1.371       .  S
C1544      C1545   1.410       .  A
C1545      C1546   1.407       .  A
C1545      H1549   1.083       .  S
O1548      H1552   0.992       .  S
O1550      H1551   0.992       .  S
C1553      C1554   1.403       .  A
C1553      C1558   1.414       .  A
C1554      C1555   1.410       .  A
C1554      H1559   1.084       .  S
C1555      C1556   1.414       .  A
C1555      O1560   1.373       .  S
C1556      C1557   1.401       .  A
C1557      C1558   1.410       .  A
C1557      H1561   1.084       .  S
C1558      O1562   1.374   1_565  S
O1560      H1564   0.992       .  S
O1562      H1563   0.992       .  S
C1565      C1566   1.408       .  A
C1565      C1570   1.405       .  A
C1566      C1567   1.403       .  A
C1566      H1571   1.084       .  S
C1567      C1568   1.405       .  A
C1568      C1569   1.409       .  A
C1569      C1570   1.404       .  A
C1570      O1574   1.371       .  S
O1572      H1576   0.992       .  S
