geometry optimzed in LAMMPS
_audit_creation_date              2020-12-01 
_audit_creation_method            'lammps2cif' 
_symmetry_space_group_name_H-M    'P1' 
_symmetry_Int_Tables_number       1 
_symmetry_cell_setting            triclinic 
loop_ 
_symmetry_equiv_pos_as_xyz 
  x,y,z 
_cell_length_a                    53.53250743 
_cell_length_b                    54.16031020711116 
_cell_length_c                    40.328698582043344 
_cell_angle_alpha                 90.3016015918763 
_cell_angle_beta                  90.27740386521572 
_cell_angle_gamma                 90.00144024642422 
loop_ 
_atom_site_label 
_atom_site_type_symbol 
_atom_site_fract_x 
_atom_site_fract_y 
_atom_site_fract_z 
_atom_site_charge 
Zr1        Zr  0.00706365  0.04046689  0.21023182     2.17500
O2          O  0.00602245  0.08539380  0.20677285    -0.51300
O3          O  0.00646288  0.03322514  0.15060926    -0.74500
O4          O  0.04839079  0.05797897  0.19896755    -0.81300
O5          O  0.93655172  0.03762874  0.22293829    -0.83100
O6          O  0.07753683  0.03151776  0.21970422    -0.78700
O7          O  0.96696061  0.06063651  0.19868572    -0.90300
O8          O  0.00429366  0.99176431  0.14222206    -0.76300
O9          O  0.03159990  0.00416507  0.20152706    -0.85800
O10         O  0.97860526  0.00695565  0.20331242    -0.85500
O11         O  0.03267892  0.03643466  0.25913469    -0.72200
O12         O  0.98325373  0.03883866  0.26049248    -0.84400
Zr13       Zr  0.00478879  0.96424150  0.29481408     2.26400
Zr14       Zr  0.05639878  0.99935103  0.25060368     2.06300
Zr15       Zr  0.95557716  0.00450191  0.25368785     2.10000
Zr16       Zr  0.00292534  0.97091703  0.19532339     1.78800
O17         O  0.92624655  0.02586867  0.28979943    -0.93200
O18         O  0.03707756  0.95110005  0.16564298    -0.41000
O19         O  0.97946530  0.96775028  0.24566348    -0.77600
O20         O  0.02820939  0.96530943  0.24388978    -0.96300
O21         O  0.03337548  0.99764819  0.30111599    -0.89600
O22         O  0.98027366  0.00045977  0.30275228    -0.92400
C23         C  0.00544685  0.01407648  0.13175423     1.01300
C24         C  0.94397363  0.05588133  0.20550169     1.14200
C25         C  0.07112028  0.05132705  0.20453312     1.05000
O26         O  0.08767230  0.97989199  0.21543504    -0.94600
O27         O  0.07480106  0.96371484  0.27796321    -0.90300
O28         O  0.04476752  0.94529073  0.30903508    -0.83500
C29         C  0.06727436  0.94720141  0.29841031     1.11700
O30         O  0.01047732  0.07872677  0.31133137    -0.96600
Zr31       Zr  0.00880381  0.03375976  0.30891050     1.88900
O32         O  0.00683652  0.97203916  0.35437048    -0.73200
O33         O  0.08751110  0.01640185  0.28855424    -0.52500
O34         O  0.04708018  0.04834966  0.33552233    -0.97200
O35         O  0.97416308  0.05247987  0.33899276    -0.54400
O36         O  0.00970266  0.01352705  0.36215956    -0.73700
C37         C  0.00865467  0.99132512  0.37290776     0.98600
O38         O  0.00388961  0.91914408  0.29609324    -0.62600
O39         O  0.92338095  0.98494520  0.21960695    -0.57400
O40         O  0.96334644  0.94864648  0.30999386    -0.94000
O41         O  0.93433745  0.97290544  0.28465708    -0.92500
O42         O  0.96418988  0.95782359  0.16863058    -0.92800
O43         O  0.99833971  0.92630273  0.19042391    -0.91600
C44         C  0.94063955  0.95472577  0.30304796     1.17500
H45         H  0.96764088  0.00958841  0.18461214     0.33400
H46         H  0.03735081  0.95010050  0.24115904     0.44300
H47         H  0.96973070  0.99908444  0.32199568     0.37800
H48         H  0.04365308  0.05046321  0.26151981     0.34300
H49         H  0.02978640  0.94623464  0.14395583     0.26000
H50         H  0.10374654  0.01233478  0.27820836     0.32000
H51         H  0.05471208  0.03346762  0.34549831     0.37900
H52         H  0.96866885  0.95499584  0.14512091     0.32400
H53         H  0.90796503  0.99439229  0.22437512     0.31200
H54         H  0.91031034  0.01677902  0.28712843     0.32900
H55         H  0.96835465  0.03969756  0.35462335     0.31900
H56         H  0.99742054  0.92044958  0.21360268     0.35900
H57         H  0.98840064  0.91432058  0.28421623     0.28600
H58         H  0.01274831  0.08942947  0.18462051     0.32800
H59         H  0.01298172  0.08298202  0.33503281     0.35700
H60         H  0.92756371  0.98928402  0.19648279     0.28300
H61         H  0.01733282  0.91373898  0.28091394     0.41200
H62         H  0.08026475  0.96381654  0.20895701     0.31200
H63         H  0.04867293  0.96473374  0.16028354     0.38800
H64         H  0.96055543  0.05380622  0.32240344     0.30700
H65         H  0.08599113  0.03453352  0.28630534     0.30800
H66         H  0.01880010  0.09135297  0.22274967     0.31000
Zr67       Zr  0.00508807  0.04037979  0.71029667     2.17500
O68         O  0.99604521  0.08321909  0.69608922    -0.51300
O69         O  0.00922249  0.03309350  0.65088276    -0.74500
O70         O  0.04261920  0.06615976  0.70700919    -0.81300
O71         O  0.93484921  0.02740243  0.71768213    -0.83100
O72         O  0.07394131  0.04857546  0.73693672    -0.78700
O73         O  0.96302336  0.05634990  0.70161859    -0.90300
O74         O  0.01430429  0.99196910  0.64225656    -0.76300
O75         O  0.03737358  0.01018778  0.70655349    -0.85800
O76         O  0.98460781  0.00214904  0.69830540    -0.85500
O77         O  0.02562130  0.04153906  0.76352423    -0.72200
O78         O  0.97724727  0.03302099  0.75570104    -0.84400
Zr79       Zr  0.01010290  0.96425967  0.79385556     2.26400
Zr80       Zr  0.05742476  0.01045269  0.75986928     2.06300
Zr81       Zr  0.95768760  0.99420090  0.74400570     2.10000
Zr82       Zr  0.01673042  0.97195629  0.69561591     1.78800
O83         O  0.91869626  0.00295192  0.77258354    -0.93200
O84         O  0.05624640  0.96263503  0.66856890    -0.41000
O85         O  0.98928732  0.96318336  0.74086348    -0.77600
O86         O  0.03770854  0.97165420  0.74795957    -0.96300
O87         O  0.03020410  0.00268158  0.80542165    -0.89600
O88         O  0.97786313  0.99450864  0.79701615    -0.92400
C89         C  0.01183371  0.01417779  0.63192875     1.01300
C90         C  0.94058844  0.04836289  0.70522170     1.14200
C91         C  0.06498046  0.06591032  0.71876862     1.05000
O92         O  0.09398952  0.99967828  0.72713863    -0.94600
O93         O  0.08005752  0.97820908  0.78916599    -0.90300
O94         O  0.05199718  0.95058764  0.80952039    -0.83500
C95         C  0.07442329  0.95817480  0.80431165     1.11700
O96         O  0.98746979  0.07659195  0.80802690    -0.96600
Zr97       Zr  0.99795911  0.03277314  0.80829644     1.88900
O98         O  0.00745429  0.97158020  0.85354412    -0.73200
O99         O  0.08141479  0.03022483  0.80412509    -0.52500
O100        O  0.02795798  0.05776154  0.83936084    -0.97200
O101        O  0.95747321  0.04064426  0.83370646    -0.54400
O102        O  0.00156673  0.01273908  0.86157903    -0.73700
C103        C  0.00475352  0.99068838  0.87224333     0.98600
O104        O  0.01695896  0.91958118  0.79473736    -0.62600
O105        O  0.93638325  0.97276496  0.69875140    -0.57400
O106        O  0.97118884  0.94151035  0.80353488    -0.94000
O107        O  0.94106953  0.95745908  0.76992036    -0.92500
O108        O  0.98666452  0.94704331  0.66468884    -0.92800
O109        O  0.02673981  0.92809140  0.69592406    -0.91600
C110        C  0.94899606  0.94163545  0.79108550     1.17500
H111        H  0.97495327  0.00291674  0.67806979     0.33400
H112        H  0.05003764  0.95871601  0.74647627     0.44300
H113        H  0.96613571  0.99059775  0.81433858     0.37800
H114        H  0.03273434  0.05761728  0.76792233     0.34300
H115        H  0.05158691  0.95780297  0.64564156     0.26000
H116        H  0.09870411  0.03098987  0.79557278     0.32000
H117        H  0.03899394  0.04570591  0.85056746     0.37900
H118        H  0.99410521  0.94503854  0.64240227     0.32400
H119        H  0.94018813  0.95507263  0.70221295     0.31200
H120        H  0.90545277  0.99684226  0.75740038     0.32900
H121        H  0.95481516  0.02689316  0.84936934     0.31900
H122        H  0.01747267  0.92144294  0.71510172     0.35900
H123        H  0.00223409  0.91197100  0.78383467     0.28600
H124        H  0.00612947  0.08686689  0.67618593     0.32800
H125        H  0.98420975  0.08108663  0.83144429     0.35700
H126        H  0.91839493  0.97431106  0.70395878     0.28300
H127        H  0.03057113  0.91652917  0.77868018     0.41200
H128        H  0.09239871  0.98170840  0.72300202     0.31200
H129        H  0.06462695  0.97881675  0.66615940     0.38800
H130        H  0.94520458  0.03767142  0.81567456     0.30700
H131        H  0.07568232  0.04760453  0.80437189     0.30800
H132        H  0.00346159  0.09336064  0.71411631     0.31000
Zr133      Zr  0.28331799  0.25372303  0.06991013     2.17500
O134        O  0.32322471  0.25464811  0.04085387    -0.51300
O135        O  0.26802990  0.25364057  0.01251977    -0.74500
O136        O  0.30243707  0.21294669  0.06250233    -0.81300
O137        O  0.28616052  0.32358017  0.08619330    -0.83100
O138        O  0.28228805  0.18421118  0.09338762    -0.78700
O139        O  0.30795115  0.29152001  0.06393502    -0.90300
O140        O  0.22565108  0.25369999  0.01353927    -0.76300
O141        O  0.24676425  0.22851963  0.07054834    -0.85800
O142        O  0.24871305  0.28150784  0.06849174    -0.85500
O143        O  0.28584810  0.23090270  0.12107523    -0.72200
O144        O  0.28712219  0.27943844  0.11840532    -0.84400
Zr145      Zr  0.21734214  0.25826627  0.16960007     2.26400
Zr146      Zr  0.24863945  0.20603570  0.12164050     2.06300
Zr147      Zr  0.25187995  0.30635991  0.11754645     2.10000
Zr148      Zr  0.21229788  0.25639176  0.07030953     1.78800
O149        O  0.27365491  0.33883626  0.14808772    -0.93200
O150        O  0.19046981  0.22078599  0.04681957    -0.41000
O151        O  0.21494948  0.28162705  0.11905643    -0.77600
O152        O  0.21306658  0.23311550  0.12042108    -0.96300
O153        O  0.25226237  0.23105222  0.17065675    -0.89600
O154        O  0.25353052  0.28393772  0.16846941    -0.92400
C155        C  0.24649408  0.25331594  0.99826353     1.01300
C156        C  0.30477669  0.31462042  0.07025488     1.14200
C157        C  0.29977332  0.19091326  0.07362613     1.05000
O158        O  0.22795836  0.17559604  0.08627178    -0.94600
O159        O  0.21477461  0.18801680  0.15342334    -0.90300
O160        O  0.19638962  0.21918307  0.18239489    -0.83500
C161        C  0.19811114  0.19643546  0.17335696     1.11700
O162        O  0.33310053  0.25645132  0.15823081    -0.96600
Zr163      Zr  0.28832862  0.25677992  0.16895280     1.88900
O164        O  0.23259299  0.25775425  0.22701208    -0.73200
O165        O  0.26517440  0.17546940  0.16000606    -0.52500
O166        O  0.30812961  0.22144118  0.19542162    -0.97200
O167        O  0.30919203  0.29281132  0.19276975    -0.54400
O168        O  0.27500584  0.25775879  0.22581001    -0.73700
C169        C  0.25418364  0.25772890  0.24117525     0.98600
O170        O  0.17537719  0.26395074  0.19179066    -0.62600
O171        O  0.23086735  0.33488787  0.08014975    -0.57400
O172        O  0.19859200  0.29882555  0.17869806    -0.94000
O173        O  0.22155110  0.32770805  0.15162526    -0.92500
O174        O  0.19314143  0.29171121  0.04292076    -0.92800
O175        O  0.16748924  0.26042989  0.07887131    -0.91600
C176        C  0.20354189  0.32122364  0.17053515     1.17500
H177        H  0.24909005  0.29170856  0.04898018     0.33400
H178        H  0.19757067  0.22402005  0.12062658     0.44300
H179        H  0.25383305  0.29512823  0.18721447     0.37800
H180        H  0.30079719  0.22101487  0.12240882     0.34300
H181        H  0.20295240  0.21238933  0.03266095     0.26000
H182        H  0.26423686  0.15960094  0.14775557     0.32000
H183        H  0.29479845  0.21372628  0.20878345     0.37900
H184        H  0.20570309  0.29763303  0.02688047     0.32400
H185        H  0.21282587  0.33209906  0.08392216     0.31200
H186        H  0.26719959  0.35444139  0.13865886     0.32900
H187        H  0.29668730  0.30075978  0.20733490     0.31900
H188        H  0.16540586  0.25958466  0.10322478     0.35900
H189        H  0.16413354  0.25423911  0.17715023     0.28600
H190        H  0.32123158  0.24363631  0.02134142     0.32800
H191        H  0.34124524  0.25653771  0.18032852     0.35700
H192        H  0.23417273  0.35145318  0.08970019     0.28300
H193        H  0.17523093  0.25529664  0.21335998     0.41200
H194        H  0.23665641  0.17656981  0.06470915     0.31200
H195        H  0.18799526  0.20936101  0.06558817     0.38800
H196        H  0.31105282  0.30434850  0.17397937     0.30700
H197        H  0.28325709  0.17914949  0.16160924     0.30800
H198        H  0.33540180  0.24621283  0.05549735     0.31000
Zr199      Zr  0.27951055  0.25459889  0.56565086     2.17500
O200        O  0.31805892  0.25815591  0.53398037    -0.51300
O201        O  0.25927685  0.25468752  0.51109106    -0.74500
O202        O  0.29801243  0.21433416  0.55153714    -0.81300
O203        O  0.28556061  0.32287800  0.59125482    -0.83100
O204        O  0.27524823  0.18452915  0.57691916    -0.78700
O205        O  0.30094436  0.29378045  0.55595199    -0.90300
O206        O  0.21717102  0.25545944  0.51729742    -0.76300
O207        O  0.24357751  0.22892651  0.56961216    -0.85800
O208        O  0.24464972  0.28177152  0.57126947    -0.85500
O209        O  0.28677604  0.22990357  0.61431886    -0.72200
O210        O  0.28651831  0.27818663  0.61547978    -0.84400
Zr211      Zr  0.22140652  0.25403555  0.67403539     2.26400
Zr212      Zr  0.25002172  0.20481866  0.61852200     2.06300
Zr213      Zr  0.25114254  0.30477036  0.62157517     2.10000
Zr214      Zr  0.20887849  0.25593866  0.57591959     1.78800
O215        O  0.27067477  0.33455164  0.65904755    -0.93200
O216        O  0.18533886  0.22105709  0.55371716    -0.41000
O217        O  0.21512542  0.27901781  0.62575007    -0.77600
O218        O  0.21381605  0.23058164  0.62401112    -0.96300
O219        O  0.25662550  0.22766252  0.66870109    -0.89600
O220        O  0.25704068  0.28043386  0.67044077    -0.92400
C221        C  0.23685399  0.25505045  0.49950254     1.01300
C222        C  0.30067714  0.31563602  0.56856577     1.14200
C223        C  0.29261702  0.19160448  0.55741058     1.05000
O224        O  0.22444617  0.17375470  0.59074548    -0.94600
O225        O  0.22365379  0.18383534  0.65770696    -0.90300
O226        O  0.20269632  0.21364259  0.68600515    -0.83500
C227        C  0.20701932  0.19095794  0.67833391     1.11700
O228        O  0.33662666  0.25140891  0.65167501    -0.96600
Zr229      Zr  0.29214726  0.25371580  0.66406462     1.88900
O230        O  0.24147003  0.25502394  0.72864329    -0.73200
O231        O  0.27585445  0.17535121  0.64861804    -0.52500
O232        O  0.31116815  0.21625517  0.68598109    -0.97200
O233        O  0.31530930  0.28961504  0.68413385    -0.54400
O234        O  0.28362492  0.25436885  0.72270317    -0.73700
C235        C  0.26385040  0.25481344  0.74035751     0.98600
O236        O  0.18413420  0.25596012  0.70866097    -0.62600
O237        O  0.23304211  0.33741095  0.58761393    -0.57400
O238        O  0.19807387  0.29244411  0.68097803    -0.94000
O239        O  0.21612366  0.32313421  0.65113115    -0.92500
O240        O  0.18933852  0.29302089  0.55383472    -0.92800
O241        O  0.16472605  0.25856116  0.58968747    -0.91600
C242        C  0.19917267  0.31482479  0.67062122     1.17500
H243        H  0.24330732  0.29261513  0.55249544     0.33400
H244        H  0.19883716  0.22072371  0.62568100     0.44300
H245        H  0.25858553  0.29100540  0.68975939     0.37800
H246        H  0.30148206  0.21978847  0.61204982     0.34300
H247        H  0.17578157  0.22789143  0.53478874     0.26000
H248        H  0.27066770  0.15898982  0.63995419     0.32000
H249        H  0.29777345  0.20806179  0.69870449     0.37900
H250        H  0.19282280  0.30597956  0.57063283     0.32400
H251        H  0.23864931  0.35298248  0.59824586     0.31200
H252        H  0.26952548  0.35053547  0.64733617     0.32900
H253        H  0.30484708  0.29685804  0.70186897     0.31900
H254        H  0.16447260  0.26071882  0.61408193     0.35900
H255        H  0.17064859  0.24790949  0.69562447     0.28600
H256        H  0.31558090  0.24795868  0.51377843     0.32800
H257        H  0.34514868  0.25013019  0.67345217     0.35700
H258        H  0.24212802  0.33681229  0.56630555     0.28300
H259        H  0.18727933  0.24485168  0.72765989     0.41200
H260        H  0.20733691  0.18068778  0.59084753     0.31200
H261        H  0.19806935  0.21030389  0.54330313     0.38800
H262        H  0.31428666  0.30167083  0.66580697     0.30700
H263        H  0.29297027  0.17773413  0.64001797     0.30800
H264        H  0.33096037  0.24939424  0.54709711     0.31000
Zr265      Zr  0.20903559  0.74332036  0.32833187     2.17500
O266        O  0.16352513  0.74259365  0.32581793    -0.51300
O267        O  0.21617073  0.74116842  0.26861365    -0.74500
O268        O  0.19291329  0.78388346  0.31283856    -0.81300
O269        O  0.20507815  0.67540367  0.35165107    -0.83100
O270        O  0.21796596  0.81318261  0.33635055    -0.78700
O271        O  0.18766940  0.70440095  0.31801676    -0.90300
O272        O  0.25791200  0.73665658  0.26101977    -0.76300
O273        O  0.24637542  0.76568405  0.31778483    -0.85800
O274        O  0.24140422  0.71331141  0.32427600    -0.85500
O275        O  0.21413789  0.77045417  0.37537777    -0.72200
O276        O  0.20963003  0.72228813  0.38074029    -0.84400
Zr277      Zr  0.28632523  0.74184415  0.41279326     2.26400
Zr278      Zr  0.25210169  0.79230005  0.36471075     2.06300
Zr279      Zr  0.24258862  0.69282158  0.37655833     2.10000
Zr280      Zr  0.27872269  0.73570135  0.31439325     1.78800
O281        O  0.22310768  0.66597845  0.41724247    -0.93200
O282        O  0.30033992  0.76780918  0.28369717    -0.41000
O283        O  0.28072633  0.71446373  0.36629605    -0.77600
O284        O  0.28549881  0.76293863  0.36045335    -0.96300
O285        O  0.25374846  0.77164305  0.41685612    -0.89600
O286        O  0.24884039  0.71945670  0.42326944    -0.92400
C287        C  0.23549333  0.73877477  0.25008379     1.01300
C288        C  0.18874562  0.68261415  0.33033832     1.14200
C289        C  0.19871681  0.80642015  0.31943992     1.05000
O290        O  0.27232096  0.81737944  0.32267249    -0.94600
O291        O  0.28829276  0.81099946  0.39128396    -0.90300
O292        O  0.30767376  0.78122906  0.42165502    -0.83500
C293        C  0.30568303  0.80343485  0.41083430     1.11700
O294        O  0.17118402  0.75421917  0.42523735    -0.96600
Zr295      Zr  0.21644123  0.74927412  0.42714319     1.88900
O296        O  0.27949902  0.74708842  0.47216412    -0.73200
O297        O  0.23802322  0.82676673  0.39887808    -0.52500
O298        O  0.20306003  0.78767773  0.45334304    -0.97200
O299        O  0.19631303  0.71727050  0.45986371    -0.54400
O300        O  0.23778688  0.75203727  0.48016213    -0.73700
C301        C  0.26038413  0.75058520  0.49075963     0.98600
O302        O  0.33192846  0.73836380  0.41502613    -0.62600
O303        O  0.25670695  0.65919386  0.34099658    -0.57400
O304        O  0.30168739  0.70092000  0.42858257    -0.94000
O305        O  0.27570807  0.67189929  0.40633341    -0.92500
O306        O  0.29119213  0.69698430  0.28815878    -0.92800
O307        O  0.32372465  0.72935801  0.31246624    -0.91600
C308        C  0.29518609  0.67840274  0.42280435     1.17500
H309        H  0.23813152  0.70170826  0.30650533     0.33400
H310        H  0.30115865  0.77136023  0.35693894     0.44300
H311        H  0.25026493  0.70996085  0.44337181     0.37800
H312        H  0.20020780  0.78170337  0.37696991     0.34300
H313        H  0.30493304  0.75988172  0.26239874     0.26000
H314        H  0.23923995  0.84141523  0.38438702     0.32000
H315        H  0.21852577  0.79753085  0.45597605     0.37900
H316        H  0.27793905  0.69319275  0.27170363     0.32400
H317        H  0.27465557  0.66258712  0.33735190     0.31200
H318        H  0.22532562  0.64908205  0.40823306     0.32900
H319        H  0.21003480  0.70882452  0.47180224     0.31900
H320        H  0.33015231  0.73712232  0.33308580     0.35900
H321        H  0.33616945  0.72305791  0.40276004     0.28600
H322        H  0.15907069  0.74906475  0.30364656     0.32800
H323        H  0.16578807  0.75532548  0.44864846     0.35700
H324        H  0.25647750  0.64438684  0.35528573     0.28300
H325        H  0.33840548  0.75153244  0.40046449     0.41200
H326        H  0.26220354  0.81481714  0.30232461     0.31200
H327        H  0.28711994  0.77975394  0.27763184     0.38800
H328        H  0.19038497  0.70499650  0.44333343     0.30700
H329        H  0.21986022  0.82407938  0.40167686     0.30800
H330        H  0.15802421  0.75548787  0.34167263     0.31000
Zr331      Zr  0.21355289  0.74510366  0.82852597     2.17500
O332        O  0.16911834  0.74109122  0.81562789    -0.51300
O333        O  0.22124609  0.74833114  0.76921083    -0.74500
O334        O  0.19171872  0.78466482  0.82339353    -0.81300
O335        O  0.21942143  0.67525945  0.84097377    -0.83100
O336        O  0.21336768  0.81479284  0.85043567    -0.78700
O337        O  0.19375639  0.70491743  0.82000844    -0.90300
O338        O  0.26301944  0.75128350  0.76080400    -0.76300
O339        O  0.24705720  0.77375043  0.82378743    -0.85800
O340        O  0.25010637  0.72099582  0.81812288    -0.85500
O341        O  0.21466382  0.76693834  0.88065078    -0.72200
O342        O  0.21838481  0.71808878  0.87510262    -0.84400
Zr343      Zr  0.29014551  0.74516219  0.91325061     2.26400
Zr344      Zr  0.24916958  0.79505042  0.87596376     2.06300
Zr345      Zr  0.25577856  0.69492204  0.86533332     2.10000
Zr346      Zr  0.28352511  0.74968749  0.81430309     1.78800
O347        O  0.24437636  0.65833630  0.89667737    -0.93200
O348        O  0.29726521  0.78830727  0.78959650    -0.41000
O349        O  0.28954687  0.72334337  0.86123858    -0.77600
O350        O  0.28630696  0.77162813  0.86578474    -0.96300
O351        O  0.25350676  0.76887499  0.92308241    -0.89600
O352        O  0.25695939  0.71614234  0.91732074    -0.92400
C353        C  0.24037844  0.75047108  0.75039477     1.01300
C354        C  0.19931580  0.68232176  0.82643357     1.14200
C355        C  0.19477238  0.80712585  0.83303279     1.05000
O356        O  0.26292627  0.82951540  0.84211087    -0.94600
O357        O  0.28471539  0.81453472  0.90350668    -0.90300
O358        O  0.30616446  0.78486432  0.93149507    -0.83500
C359        C  0.30259903  0.80726414  0.92250286     1.11700
O360        O  0.17477451  0.73852865  0.92622825    -0.96600
Zr361      Zr  0.22030815  0.73983022  0.92666317     1.88900
O362        O  0.28286130  0.74226145  0.97275627    -0.73200
O363        O  0.23118683  0.82180644  0.91832962    -0.52500
O364        O  0.20158646  0.77193749  0.96102523    -0.97200
O365        O  0.20482781  0.70083162  0.94845437    -0.54400
O366        O  0.24099746  0.73832974  0.98001911    -0.73700
C367        C  0.26344425  0.73990462  0.99107818     0.98600
O368        O  0.33577011  0.74770135  0.91299767    -0.62600
O369        O  0.27565251  0.67058494  0.82176658    -0.57400
O370        O  0.31079829  0.70631613  0.92470601    -0.94000
O371        O  0.29228385  0.67696110  0.89236149    -0.92500
O372        O  0.30290556  0.71661561  0.78234663    -0.92800
O373        O  0.32894725  0.75173712  0.81286016    -0.91600
C374        C  0.30914092  0.68433000  0.91297335     1.17500
H375        H  0.24835663  0.71129195  0.79812845     0.33400
H376        H  0.30070926  0.78225537  0.86424685     0.44300
H377        H  0.25975911  0.70466203  0.93513658     0.37800
H378        H  0.19927325  0.77577296  0.88441232     0.34300
H379        H  0.30486943  0.78339706  0.76821914     0.26000
H380        H  0.23368226  0.83874722  0.90984151     0.32000
H381        H  0.21583462  0.78196889  0.96916066     0.37900
H382        H  0.30408851  0.72307551  0.75948360     0.32400
H383        H  0.27940872  0.65448620  0.83219152     0.31200
H384        H  0.25015613  0.64427115  0.88293175     0.32900
H385        H  0.21680458  0.69617994  0.96612267     0.31900
H386        H  0.33431071  0.74704757  0.83549374     0.35900
H387        H  0.34135282  0.73456624  0.89755219     0.28600
H388        H  0.16616899  0.75097363  0.79538885     0.32800
H389        H  0.16981087  0.73559493  0.94950306     0.35700
H390        H  0.26218095  0.66687765  0.80559585     0.28300
H391        H  0.33985127  0.76310317  0.90106179     0.41200
H392        H  0.28025538  0.82529441  0.83577182     0.31200
H393        H  0.28165538  0.79690050  0.78320765     0.38800
H394        H  0.20778906  0.68867383  0.93048213     0.30700
H395        H  0.21292954  0.81905903  0.91677994     0.30800
H396        H  0.16021006  0.74995653  0.83356740     0.31000
Zr397      Zr  0.49345190  0.96085082  0.95673077     2.17500
O398        O  0.49476678  0.91626015  0.94799715    -0.51300
O399        O  0.49542884  0.96925418  0.89746133    -0.74500
O400        O  0.45240225  0.94383820  0.94244014    -0.81300
O401        O  0.56191728  0.95921957  0.98391496    -0.83100
O402        O  0.42244585  0.97085916  0.95932889    -0.78700
O403        O  0.53345815  0.93948960  0.95106683    -0.90300
O404        O  0.49609401  0.01083121  0.89041324    -0.76300
O405        O  0.46878444  0.99677221  0.94786624    -0.85800
O406        O  0.52178938  0.99460939  0.95255225    -0.85500
O407        O  0.46660452  0.96367318  0.00429097    -0.72200
O408        O  0.51542261  0.96233701  0.00871147    -0.84400
Zr409      Zr  0.49206232  0.03653239  0.04323395     2.26400
Zr410      Zr  0.44262854  0.00039339  0.99548005     2.06300
Zr411      Zr  0.54315431  0.99669486  0.00461575     2.10000
Zr412      Zr  0.49696627  0.03049133  0.94440366     1.78800
O413        O  0.57299689  0.98073699  0.04494138    -0.93200
O414        O  0.46266248  0.05052798  0.91505629    -0.41000
O415        O  0.51906196  0.03322248  0.99600623    -0.77600
O416        O  0.46992261  0.03519566  0.99122416    -0.96300
O417        O  0.46406512  0.00258844  0.04733409    -0.89600
O418        O  0.51690127  0.00060393  0.05187953    -0.92400
C419        C  0.49581503  0.98862865  0.87924078     1.01300
C420        C  0.55526293  0.94168685  0.96435882     1.14200
C421        C  0.42956110  0.95101042  0.94485794     1.05000
O422        O  0.41270904  0.02144120  0.95981221    -0.94600
O423        O  0.42204418  0.03232321  0.02713873    -0.90300
O424        O  0.45122238  0.05487908  0.05528155    -0.83500
C425        C  0.42857375  0.05004872  0.04647255     1.11700
O426        O  0.48595524  0.92192168  0.05691510    -0.96600
Zr427      Zr  0.48882943  0.96683159  0.05583459     1.88900
O428        O  0.49034735  0.02872321  0.10262826    -0.73200
O429        O  0.41142673  0.97976425  0.02934962    -0.52500
O430        O  0.45015418  0.95226105  0.08067197    -0.97200
O431        O  0.52383225  0.94820515  0.08546039    -0.54400
O432        O  0.48783232  0.98714463  0.10956419    -0.73700
C433        C  0.48895048  0.00935008  0.12078693     0.98600
O434        O  0.49344500  0.08162496  0.04374504    -0.62600
O435        O  0.57548149  0.01083333  0.96690480    -0.57400
O436        O  0.53262949  0.05297550  0.06030878    -0.94000
O437        O  0.56266717  0.03080318  0.03368309    -0.92500
O438        O  0.53572832  0.04416234  0.91892573    -0.92800
O439        O  0.50164388  0.07518839  0.94313578    -0.91600
C440        C  0.55546980  0.04854764  0.05255897     1.17500
H441        H  0.53344117  0.99207707  0.93455396     0.33400
H442        H  0.46029532  0.05011416  0.98849071     0.44300
H443        H  0.52700503  0.00217607  0.07170071     0.37800
H444        H  0.45580598  0.94940874  0.00539973     0.34300
H445        H  0.47051241  0.05847910  0.89565991     0.26000
H446        H  0.39522952  0.98399571  0.01887469     0.32000
H447        H  0.44322023  0.96677597  0.09247480     0.37900
H448        H  0.54008597  0.03117902  0.90258106     0.32400
H449        H  0.57305673  0.02892495  0.96561366     0.31200
H450        H  0.58922208  0.98811223  0.03870684     0.32900
H451        H  0.53051845  0.96143207  0.10002661     0.31900
H452        H  0.49582283  0.08084323  0.96516593     0.35900
H453        H  0.50788401  0.08597845  0.02967345     0.28600
H454        H  0.48775327  0.91340002  0.92553651     0.32800
H455        H  0.48549750  0.91744030  0.08068167     0.35700
H456        H  0.59129603  0.00879734  0.97942296     0.28300
H457        H  0.47885512  0.08702739  0.03045944     0.41200
H458        H  0.42080895  0.03730941  0.95426923     0.31200
H459        H  0.45276431  0.03678502  0.90543119     0.38800
H460        H  0.53684794  0.94582767  0.06838119     0.30700
H461        H  0.41358569  0.96191154  0.02482959     0.30800
H462        H  0.48227524  0.90931874  0.96339953     0.31000
Zr463      Zr  0.48983616  0.96133611  0.45756880     2.17500
O464        O  0.48761632  0.91668711  0.44928897    -0.51300
O465        O  0.49276389  0.96745622  0.39788736    -0.74500
O466        O  0.44776071  0.94634130  0.44519139    -0.81300
O467        O  0.55885918  0.95526549  0.48119384    -0.83100
O468        O  0.41940233  0.97427036  0.46403720    -0.78700
O469        O  0.52715124  0.93593554  0.45368543    -0.90300
O470        O  0.49949009  0.00827951  0.38944141    -0.76300
O471        O  0.46854760  0.99903814  0.44644999    -0.85800
O472        O  0.52156565  0.99199625  0.45234003    -0.85500
O473        O  0.46307567  0.96800872  0.50446395    -0.72200
O474        O  0.51208221  0.96213809  0.50940240    -0.84400
Zr475      Zr  0.49429350  0.03824646  0.54100064     2.26400
Zr476      Zr  0.44224768  0.00639075  0.49340882     2.06300
Zr477      Zr  0.54299631  0.99389354  0.50455368     2.10000
Zr478      Zr  0.50026380  0.02959588  0.44214337     1.78800
O479        O  0.56718134  0.97687282  0.55035083    -0.93200
O480        O  0.47010839  0.05120737  0.40738203    -0.41000
O481        O  0.52145876  0.03189370  0.49430641    -0.77600
O482        O  0.47329200  0.03793947  0.48803696    -0.96300
O483        O  0.46319102  0.00722495  0.54609318    -0.89600
O484        O  0.51661497  0.00095473  0.55155592    -0.92400
C485        C  0.49624208  0.98612784  0.37901052     1.01300
C486        C  0.54981798  0.93721245  0.46407094     1.14200
C487        C  0.42526210  0.95392766  0.44963505     1.05000
O488        O  0.41494253  0.02546921  0.45243722    -0.94600
O489        O  0.42530730  0.04487948  0.51516222    -0.90300
O490        O  0.45659912  0.06385346  0.54378955    -0.83500
C491        C  0.43416226  0.06297254  0.53227471     1.11700
O492        O  0.47589058  0.92578320  0.55706864    -0.96600
Zr493      Zr  0.48541174  0.96979786  0.55581583     1.88900
O494        O  0.49359079  0.03050966  0.60082649    -0.73200
O495        O  0.40792416  0.99454679  0.52941222    -0.52500
O496        O  0.44511201  0.96133457  0.58119615    -0.97200
O497        O  0.51740326  0.94634025  0.58521003    -0.54400
O498        O  0.48814044  0.98952144  0.60952951    -0.73700
C499        C  0.49123899  0.01171334  0.61988909     0.98600
O500        O  0.49377639  0.08146304  0.55853343    -0.62600
O501        O  0.58043441  0.00278538  0.47253717    -0.57400
O502        O  0.53585307  0.05608362  0.54582155    -0.94000
O503        O  0.56536079  0.03045886  0.52436626    -0.92500
O504        O  0.54139888  0.03860503  0.41965092    -0.92800
O505        O  0.50704065  0.07392890  0.43805604    -0.91600
C506        C  0.55848198  0.05074973  0.53831760     1.17500
H507        H  0.53294544  0.98796860  0.43456892     0.33400
H508        H  0.46574216  0.05375411  0.48352556     0.44300
H509        H  0.52671458  0.00222183  0.57138690     0.37800
H510        H  0.45111201  0.95476995  0.50656163     0.34300
H511        H  0.47830695  0.05275280  0.38552719     0.26000
H512        H  0.39278575  0.99604787  0.51535761     0.32000
H513        H  0.44873910  0.95917702  0.60510013     0.37900
H514        H  0.55175945  0.04301925  0.43920755     0.32400
H515        H  0.59357957  0.99209180  0.48214413     0.31200
H516        H  0.58188374  0.96909158  0.53978259     0.32900
H517        H  0.52687926  0.95873590  0.59829224     0.31900
H518        H  0.51573852  0.07845320  0.45894533     0.35900
H519        H  0.50420151  0.08234894  0.57885649     0.28600
H520        H  0.47968117  0.91410896  0.42730577     0.32800
H521        H  0.47524434  0.92135512  0.58084354     0.35700
H522        H  0.57723030  0.99578516  0.45019428     0.28300
H523        H  0.50323602  0.09061942  0.54150179     0.41200
H524        H  0.42230208  0.04196073  0.44849137     0.31200
H525        H  0.45652640  0.03909859  0.40357304     0.38800
H526        H  0.52917857  0.94094478  0.56775673     0.30700
H527        H  0.41002321  0.97655734  0.53264144     0.30800
H528        H  0.47529795  0.91061401  0.46557828     0.31000
Zr529      Zr  0.71351952  0.75452834  0.41341299     2.17500
O530        O  0.66862630  0.75809950  0.42248306    -0.51300
O531        O  0.72130942  0.75042200  0.47282812    -0.74500
O532        O  0.69296401  0.71410464  0.41835585    -0.81300
O533        O  0.71713976  0.82421995  0.40141854    -0.83100
O534        O  0.71571487  0.68540514  0.39019652    -0.78700
O535        O  0.69324230  0.79418296  0.42465359    -0.90300
O536        O  0.76320798  0.75079440  0.48166615    -0.76300
O537        O  0.74817865  0.72711363  0.41844093    -0.85800
O538        O  0.74909849  0.78020740  0.42355095    -0.85500
O539        O  0.71561908  0.73293899  0.36120025    -0.72200
O540        O  0.71735993  0.78145280  0.36648044    -0.84400
Zr541      Zr  0.79049618  0.75679900  0.32909123     2.26400
Zr542      Zr  0.75118352  0.70613180  0.36602801     2.06300
Zr543      Zr  0.75379035  0.80613853  0.37598875     2.10000
Zr544      Zr  0.78352756  0.75279970  0.42836474     1.78800
O545        O  0.74084986  0.83780901  0.33680801    -0.93200
O546        O  0.79980269  0.71584906  0.45504437    -0.41000
O547        O  0.78839682  0.77870910  0.38105237    -0.77600
O548        O  0.78760438  0.73062640  0.37718323    -0.96300
O549        O  0.75470173  0.73205522  0.31844055    -0.89600
O550        O  0.75634500  0.78482990  0.32391989    -0.92400
C551        C  0.74060510  0.74968223  0.49184789     1.01300
C552        C  0.69794348  0.81685055  0.41750283     1.14200
C553        C  0.69689847  0.69198903  0.40765405     1.05000
O554        O  0.76640584  0.67096847  0.39762218    -0.94600
O555        O  0.78691773  0.68630756  0.34040663    -0.90300
O556        O  0.81150816  0.71705446  0.32082699    -0.83500
C557        C  0.80690930  0.69419195  0.32657859     1.11700
O558        O  0.67472480  0.76171683  0.31444375    -0.96600
Zr559      Zr  0.72025930  0.75981833  0.31483886     1.88900
O560        O  0.78134893  0.75984718  0.26959821    -0.73200
O561        O  0.73426537  0.68063176  0.32134259    -0.52500
O562        O  0.70257873  0.72462072  0.28504226    -0.97200
O563        O  0.70396388  0.79730372  0.28939031    -0.54400
O564        O  0.73948733  0.76112537  0.26096383    -0.73700
C565        C  0.76205030  0.76102463  0.25058720     0.98600
O566        O  0.83232137  0.76088543  0.30592395    -0.62600
O567        O  0.76821847  0.83717064  0.41577136    -0.57400
O568        O  0.81534729  0.79424643  0.33348749    -0.84400
O569        O  0.79345151  0.82446123  0.35973201    -0.92500
O570        O  0.80102014  0.78705031  0.46019919    -0.92800
O571        O  0.82899023  0.75242236  0.43003473    -0.91600
C572        C  0.81301044  0.81626728  0.34493518     1.17500
H573        H  0.74700706  0.79003981  0.44346251     0.33400
H574        H  0.80225764  0.72048631  0.38009693     0.44300
H575        H  0.75901568  0.79631768  0.30601420     0.37800
H576        H  0.70053946  0.72357540  0.35723376     0.34300
H577        H  0.80772264  0.72189282  0.47579453     0.26000
H578        H  0.73895137  0.66354568  0.32738052     0.32000
H579        H  0.69800992  0.73105315  0.26289148     0.37900
H580        H  0.79889590  0.80161081  0.44572610     0.32400
H581        H  0.76391584  0.85323292  0.40562394     0.31200
H582        H  0.74346126  0.85362213  0.34875278     0.32900
H583        H  0.71824247  0.80463010  0.27743305     0.31900
H584        H  0.83406258  0.75638965  0.40709096     0.35900
H585        H  0.84364225  0.75185168  0.32110634     0.28600
H586        H  0.66503368  0.74825197  0.44252337     0.32800
H587        H  0.66973214  0.76221834  0.29078026     0.35700
H588        H  0.75698684  0.83582500  0.43510690     0.28300
H589        H  0.83219332  0.75110685  0.28510597     0.41200
H590        H  0.78225689  0.67675101  0.40776190     0.31200
H591        H  0.78481750  0.70677174  0.46254240     0.38800
H592        H  0.70100130  0.80871635  0.30822399     0.30700
H593        H  0.71591527  0.68123054  0.32418236     0.30800
H594        H  0.66068377  0.74893182  0.40391999     0.31000
Zr595      Zr  0.71102738  0.75773936  0.91258604     2.17500
O596        O  0.66688578  0.76131577  0.92671998    -0.51300
O597        O  0.71892262  0.76318226  0.97179804    -0.74500
O598        O  0.69228583  0.71775523  0.92749116    -0.81300
O599        O  0.70896547  0.82348615  0.87709794    -0.83100
O600        O  0.71996989  0.68753635  0.91402583    -0.78700
O601        O  0.68783751  0.79638990  0.90957791    -0.90300
O602        O  0.76083402  0.76338345  0.98026558    -0.76300
O603        O  0.74739450  0.73444391  0.92538162    -0.85800
O604        O  0.74500798  0.78639692  0.91521068    -0.85500
O605        O  0.71466007  0.72857842  0.86766349    -0.72200
O606        O  0.71360985  0.77654745  0.85887950    -0.84400
Zr607      Zr  0.78867200  0.75155149  0.82877094     2.26400
Zr608      Zr  0.75199961  0.70592165  0.88046142     2.06300
Zr609      Zr  0.74827171  0.80448318  0.86124537     2.10000
Zr610      Zr  0.78130765  0.76266157  0.92705053     1.78800
O611        O  0.73472528  0.82993205  0.81484234    -0.93200
O612        O  0.80182784  0.73069841  0.95956514    -0.41000
O613        O  0.78491013  0.78096368  0.87342964    -0.77600
O614        O  0.78687956  0.73343357  0.88301632    -0.96300
O615        O  0.75449876  0.72362017  0.82650693    -0.89600
O616        O  0.75260713  0.77576076  0.81645866    -0.92400
C617        C  0.73828063  0.76395810  0.99067837     1.01300
C618        C  0.69021132  0.81729815  0.89495282     1.14200
C619        C  0.69949685  0.69505018  0.92682128     1.05000
O620        O  0.77013781  0.67996071  0.92345548    -0.94600
O621        O  0.78775757  0.68487792  0.85729725    -0.90300
O622        O  0.80756140  0.71073549  0.82170474    -0.83500
C623        C  0.80487242  0.68981992  0.83625112     1.11700
O624        O  0.67311094  0.74531730  0.81022966    -0.96600
Zr625      Zr  0.71850398  0.74761702  0.81446210     1.88900
O626        O  0.78093808  0.74600687  0.76947699    -0.73200
O627        O  0.73520676  0.67174170  0.84787656    -0.52500
O628        O  0.70549684  0.70698114  0.79474508    -0.97200
O629        O  0.69942780  0.77953181  0.78019815    -0.54400
O630        O  0.73896502  0.74357448  0.76143565    -0.73700
C631        C  0.76150879  0.74371602  0.75086268     0.98600
O632        O  0.83439374  0.75028825  0.82737062    -0.62600
O633        O  0.75798262  0.84069996  0.89494363    -0.57400
O634        O  0.80649858  0.79046244  0.81030422    -0.94000
O635        O  0.78710255  0.82128437  0.83885316    -0.92500
O636        O  0.79370966  0.80271195  0.94946267    -0.92800
O637        O  0.82647624  0.76701183  0.93129210    -0.91600
C638        C  0.80443868  0.81303750  0.81975543     1.17500
H639        H  0.74218712  0.79894680  0.93200677     0.33400
H640        H  0.80212470  0.72445420  0.88746733     0.44300
H641        H  0.75447727  0.78446772  0.79576584     0.37800
H642        H  0.70038564  0.71773002  0.86656636     0.34300
H643        H  0.80611200  0.73879992  0.98091756     0.26000
H644        H  0.73842825  0.65693729  0.86154362     0.32000
H645        H  0.72066103  0.69961639  0.78479967     0.37900
H646        H  0.79176376  0.80125190  0.97377257     0.32400
H647        H  0.77446810  0.83703858  0.90499318     0.31200
H648        H  0.74648869  0.84403296  0.81457151     0.32900
H649        H  0.71279838  0.78515465  0.76514049     0.31900
H650        H  0.83253758  0.76426279  0.90841022     0.35900
H651        H  0.84026098  0.76659755  0.83538512     0.28600
H652        H  0.66535709  0.75450867  0.94936299     0.32800
H653        H  0.66950901  0.74128253  0.78670305     0.35700
H654        H  0.76136514  0.85395745  0.87876330     0.28300
H655        H  0.83939918  0.73901396  0.84548299     0.41200
H656        H  0.78823646  0.68371073  0.92326873     0.31200
H657        H  0.78829910  0.71901796  0.96521595     0.38800
H658        H  0.69679734  0.79362744  0.79551808     0.30700
H659        H  0.71685459  0.67393355  0.84856021     0.30800
H660        H  0.65801624  0.74941190  0.91212788     0.31000
Zr661      Zr  0.70803454  0.24017316  0.08148448     2.17500
O662        O  0.66403935  0.23271034  0.06893874    -0.51300
O663        O  0.71630387  0.24241096  0.02216456    -0.74500
O664        O  0.68413277  0.27855508  0.07387924    -0.81300
O665        O  0.71614778  0.17089738  0.09768786    -0.83100
O666        O  0.70371630  0.30913819  0.10255808    -0.78700
O667        O  0.69245719  0.19891572  0.06970273    -0.90300
O668        O  0.75796806  0.24747072  0.01489147    -0.76300
O669        O  0.73936727  0.27108656  0.07770048    -0.85800
O670        O  0.74627687  0.21861394  0.07220533    -0.85500
O671        O  0.70676115  0.26129189  0.13417011    -0.72200
O672        O  0.71400308  0.21362704  0.12853842    -0.84400
Zr673      Zr  0.78415129  0.24572198  0.16711156     2.26400
Zr674      Zr  0.73909265  0.29174859  0.13032267     2.06300
Zr675      Zr  0.75277420  0.19274420  0.11946665     2.10000
Zr676      Zr  0.77755309  0.24964194  0.06879378     1.78800
O677        O  0.74497618  0.15833463  0.15664613    -0.93200
O678        O  0.78811661  0.28773811  0.04015062    -0.41000
O679        O  0.78474254  0.22352860  0.11544660    -0.77600
O680        O  0.77821276  0.27203026  0.12015102    -0.96300
O681        O  0.74563410  0.26608107  0.17728043    -0.89600
O682        O  0.75314185  0.21424472  0.17126351    -0.92400
C683        C  0.73566627  0.24486510  0.00383849     1.01300
C684        C  0.69735037  0.17690281  0.07937886     1.14200
C685        C  0.68611093  0.30106663  0.08394218     1.05000
O686        O  0.75388422  0.32626217  0.09735767    -0.94600
O687        O  0.76849433  0.31456633  0.16408568    -0.90300
O688        O  0.79630505  0.28706835  0.18538918    -0.83500
C689        C  0.78806797  0.30911891  0.18086597     1.11700
O690        O  0.66930715  0.23027095  0.18160071    -0.96600
Zr691      Zr  0.71463446  0.23488201  0.18065268     1.88900
O692        O  0.77728509  0.24108145  0.22625538    -0.73200
O693        O  0.71653042  0.31775984  0.16959368    -0.52500
O694        O  0.69507994  0.26708069  0.21401217    -0.97200
O695        O  0.70223122  0.19524029  0.20382985    -0.54400
O696        O  0.73582307  0.23412042  0.23395905    -0.73700
C697        C  0.75824835  0.23706733  0.24470153     0.98600
O698        O  0.82897955  0.25473824  0.16841982    -0.62600
O699        O  0.76841742  0.16586318  0.07562199    -0.57400
O700        O  0.80876413  0.20864994  0.17501574    -0.94000
O701        O  0.79339594  0.17882628  0.14050613    -0.92500
O702        O  0.80049663  0.21646010  0.04165139    -0.92800
O703        O  0.82216359  0.25828862  0.06710940    -0.91600
C704        C  0.80985793  0.18738570  0.16099028     1.17500
H705        H  0.74552635  0.20864253  0.05230773     0.33400
H706        H  0.79140073  0.28416512  0.11919017     0.44300
H707        H  0.75706489  0.20297395  0.18902368     0.37800
H708        H  0.69069110  0.26904201  0.13736119     0.34300
H709        H  0.79415262  0.28238491  0.01807777     0.26000
H710        H  0.71646031  0.33438714  0.15949584     0.32000
H711        H  0.69222298  0.25943082  0.23591820     0.37900
H712        H  0.80100853  0.22114191  0.01796690     0.32400
H713        H  0.78617735  0.17055844  0.07310009     0.31200
H714        H  0.75079738  0.14356696  0.14435078     0.32900
H715        H  0.71765793  0.18824237  0.21361707     0.31900
H716        H  0.82792816  0.25619969  0.09028251     0.35900
H717        H  0.83753546  0.24056744  0.15784421     0.28600
H718        H  0.66091896  0.24074773  0.04730791     0.32800
H719        H  0.66494853  0.22726157  0.20507098     0.35700
H720        H  0.76893599  0.14922175  0.08563960     0.28300
H721        H  0.83132525  0.26823841  0.15225727     0.41200
H722        H  0.77132185  0.32196291  0.09167149     0.31200
H723        H  0.77186219  0.29578144  0.03556097     0.38800
H724        H  0.69872200  0.18463323  0.18428354     0.30700
H725        H  0.69893352  0.31218590  0.16829314     0.30800
H726        H  0.65448541  0.24256414  0.08528364     0.31000
Zr727      Zr  0.71031108  0.23858129  0.58208553     2.17500
O728        O  0.66610974  0.22846712  0.57603590    -0.51300
O729        O  0.71830701  0.23943522  0.52227681    -0.74500
O730        O  0.68428454  0.27520474  0.57237842    -0.81300
O731        O  0.72423141  0.17027567  0.59691479    -0.83100
O732        O  0.70282966  0.30778730  0.59835169    -0.78700
O733        O  0.69665448  0.19617906  0.57170835    -0.90300
O734        O  0.75976317  0.24580437  0.51420294    -0.76300
O735        O  0.74073163  0.27025651  0.57506947    -0.85800
O736        O  0.74923720  0.21783564  0.57487246    -0.85500
O737        O  0.70911777  0.26268394  0.63251053    -0.72200
O738        O  0.71705230  0.21487495  0.63167399    -0.84400
Zr739      Zr  0.78681751  0.25064368  0.66672031     2.26400
Zr740      Zr  0.74048486  0.29381003  0.62561671     2.06300
Zr741      Zr  0.75636578  0.19482729  0.62447605     2.10000
Zr742      Zr  0.77953821  0.24947478  0.56800327     1.78800
O743        O  0.74336366  0.16434014  0.66506637    -0.93200
O744        O  0.79088977  0.28807343  0.54122859    -0.41000
O745        O  0.78743666  0.22602241  0.61700360    -0.77600
O746        O  0.78015354  0.27433473  0.61719395    -0.96300
O747        O  0.74789592  0.27083712  0.67506729    -0.89600
O748        O  0.75647408  0.21889915  0.67430459    -0.92400
C749        C  0.73750817  0.24194326  0.50351595     1.01300
C750        C  0.70444122  0.17451811  0.57972624     1.14200
C751        C  0.68511445  0.29806752  0.58118476     1.05000
O752        O  0.75354459  0.32720748  0.58945117    -0.94600
O753        O  0.77065072  0.31930024  0.65494541    -0.90300
O754        O  0.80012757  0.29338382  0.67576880    -0.83500
C755        C  0.79135994  0.31505105  0.66995417     1.11700
O756        O  0.67259550  0.23148766  0.68242964    -0.96600
Zr757      Zr  0.71747063  0.23927688  0.68140223     1.88900
O758        O  0.77924410  0.25047841  0.72630921    -0.73200
O759        O  0.71862976  0.32078966  0.66442440    -0.52500
O760        O  0.69579262  0.27309039  0.70911060    -0.97200
O761        O  0.70657515  0.20222437  0.71227039    -0.54400
O762        O  0.73792730  0.24351224  0.73457196    -0.73700
C763        C  0.76019532  0.24750043  0.74509163     0.98600
O764        O  0.83158723  0.25493763  0.67692533    -0.62600
O765        O  0.77810740  0.16426616  0.59070396    -0.57400
O766        O  0.81401282  0.21492340  0.67347642    -0.94000
O767        O  0.79571904  0.18170271  0.64862332    -0.92500
O768        O  0.80145522  0.21732971  0.53736929    -0.92800
O769        O  0.82471940  0.25466639  0.56698072    -0.91600
C770        C  0.81360363  0.19205812  0.66485025     1.17500
H771        H  0.74879020  0.20690235  0.55586716     0.33400
H772        H  0.79307847  0.28657291  0.61443184     0.44300
H773        H  0.76064786  0.20877130  0.69317702     0.37800
H774        H  0.69284643  0.27005961  0.63537774     0.34300
H775        H  0.79620804  0.28316747  0.51865291     0.26000
H776        H  0.71648247  0.33657857  0.65247819     0.32000
H777        H  0.70921333  0.28375557  0.71823493     0.37900
H778        H  0.80314161  0.20357282  0.55329121     0.32400
H779        H  0.77349672  0.14814149  0.60038330     0.31200
H780        H  0.75157545  0.14882695  0.65795696     0.32900
H781        H  0.72222757  0.19687668  0.72324445     0.31900
H782        H  0.82926267  0.25949360  0.58994467     0.35900
H783        H  0.83774156  0.26646789  0.65982175     0.28600
H784        H  0.66060487  0.23605923  0.55494742     0.32800
H785        H  0.66780806  0.23217972  0.70610731     0.35700
H786        H  0.76958457  0.16454219  0.56887196     0.28300
H787        H  0.83324750  0.26399818  0.69821840     0.41200
H788        H  0.74295752  0.34141055  0.59592453     0.31200
H789        H  0.77485113  0.29680908  0.53778024     0.38800
H790        H  0.70339163  0.18949401  0.69505779     0.30700
H791        H  0.70155233  0.31388633  0.66593079     0.30800
H792        H  0.65752121  0.23795868  0.59367106     0.31000
Zr793      Zr  0.50934407  0.46343677  0.05054942     2.17500
O794        O  0.51261035  0.41960322  0.06371247    -0.51300
O795        O  0.50667204  0.47102177  0.11023972    -0.74500
O796        O  0.55179421  0.45007964  0.06137587    -0.81300
O797        O  0.44254674  0.45114093  0.02153486    -0.83100
O798        O  0.57931479  0.47843846  0.04198781    -0.78700
O799        O  0.47418071  0.43490529  0.05220125    -0.90300
O800        O  0.49997990  0.51189426  0.11884238    -0.76300
O801        O  0.52898131  0.50214202  0.06110849    -0.85800
O802        O  0.47625040  0.49249525  0.05580714    -0.85500
O803        O  0.53576580  0.47059179  0.00322486    -0.72200
O804        O  0.48769354  0.46211762  0.99839154    -0.84400
Zr805      Zr  0.50047023  0.53890389  0.96673093     2.26400
Zr806      Zr  0.55478660  0.51010697  0.01387907     2.06300
Zr807      Zr  0.45514949  0.49192516  0.00338667     2.10000
Zr808      Zr  0.49592117  0.53129371  0.06533691     1.78800
O809        O  0.42712578  0.47221564  0.96351498    -0.93200
O810        O  0.52733495  0.55506635  0.09560753    -0.41000
O811        O  0.47384822  0.53149392  0.01347858    -0.77600
O812        O  0.52210090  0.54016258  0.01913008    -0.96300
O813        O  0.53336623  0.50960627  0.96155039    -0.89600
O814        O  0.48076862  0.50022807  0.95635707    -0.92400
C815        C  0.50372146  0.48989230  0.12923716     1.01300
C816        C  0.45228764  0.43390829  0.03913500     1.14200
C817        C  0.57403186  0.45793012  0.05621360     1.05000
O818        O  0.58190465  0.53014578  0.05451552    -0.94600
O819        O  0.56910735  0.54934106  0.99112526    -0.90300
O820        O  0.53704888  0.56537101  0.96085797    -0.83500
C821        C  0.55944742  0.56605048  0.97245753     1.11700
O822        O  0.51975532  0.42635837  0.94903231    -0.96600
Zr823      Zr  0.51351776  0.47090110  0.95173317     1.88900
O824        O  0.50301910  0.53121373  0.90704871    -0.73200
O825        O  0.58914957  0.50065237  0.97655466    -0.52500
O826        O  0.55444270  0.46169318  0.92852930    -0.97200
O827        O  0.48172238  0.44934726  0.91906212    -0.54400
O828        O  0.51271779  0.49088564  0.89847063    -0.73700
C829        C  0.50775752  0.51265613  0.88811387     0.98600
O830        O  0.49649383  0.58322298  0.95728372    -0.62600
O831        O  0.42146327  0.50172661  0.04159457    -0.57400
O832        O  0.45755941  0.55180777  0.95592061    -0.94000
O833        O  0.43063176  0.52260655  0.97459160    -0.92500
O834        O  0.45583604  0.53875596  0.09188664    -0.92800
O835        O  0.48584883  0.57511223  0.06801266    -0.91600
C836        C  0.43548811  0.54309885  0.96030534     1.17500
H837        H  0.46509972  0.48814830  0.07365021     0.33400
H838        H  0.52890276  0.55642205  0.02314700     0.44300
H839        H  0.47061983  0.50073830  0.93650864     0.37800
H840        H  0.54822644  0.45783355  0.00087148     0.34300
H841        H  0.51958342  0.55884182  0.11729593     0.26000
H842        H  0.60431117  0.50599508  0.98879122     0.32000
H843        H  0.56063720  0.47768416  0.92008002     0.37900
H844        H  0.46001205  0.54743132  0.11286820     0.32400
H845        H  0.42016793  0.51995834  0.04112603     0.31200
H846        H  0.41020184  0.47448914  0.97284599     0.32900
H847        H  0.47398075  0.46201596  0.90470121     0.31900
H848        H  0.48002292  0.57922452  0.04536627     0.35900
H849        H  0.48750297  0.58500900  0.93590838     0.28600
H850        H  0.52162148  0.41864596  0.08517230     0.32800
H851        H  0.52472712  0.42280614  0.92587257     0.35700
H852        H  0.40613084  0.49585161  0.03021925     0.28300
H853        H  0.48472113  0.58928678  0.97435357     0.41200
H854        H  0.57479649  0.54688343  0.05747986     0.31200
H855        H  0.54064602  0.54299981  0.10088339     0.38800
H856        H  0.46853007  0.44518452  0.93522385     0.30700
H857        H  0.59016418  0.48240289  0.97616269     0.30800
H858        H  0.52417567  0.41248295  0.04712051     0.31000
Zr859      Zr  0.50341450  0.46468847  0.55009195     2.17500
O860        O  0.49970298  0.42000962  0.55594812    -0.51300
O861        O  0.50372486  0.47133568  0.60975663    -0.74500
O862        O  0.54330584  0.44436054  0.56127091    -0.81300
O863        O  0.43403530  0.46624978  0.52560588    -0.83100
O864        O  0.57455233  0.46981334  0.54451257    -0.78700
O865        O  0.46229760  0.44656092  0.55854000    -0.90300
O866        O  0.50260750  0.51273440  0.61874776    -0.76300
O867        O  0.52950260  0.49944676  0.56103090    -0.85800
O868        O  0.47623050  0.49929112  0.55598065    -0.85500
O869        O  0.53027406  0.46767915  0.50273684    -0.72200
O870        O  0.48094286  0.46757557  0.49856322    -0.84400
Zr871      Zr  0.50789247  0.54125143  0.46732683     2.26400
Zr872      Zr  0.55583126  0.50324578  0.51359700     2.06300
Zr873      Zr  0.45455679  0.50304189  0.50425983     2.10000
Zr874      Zr  0.50237114  0.53395111  0.56608566     1.78800
O875        O  0.42521272  0.49004579  0.46127614    -0.93200
O876        O  0.53679288  0.55263739  0.59696785    -0.41000
O877        O  0.48068542  0.53808372  0.51445815    -0.77600
O878        O  0.52956025  0.53879244  0.51970709    -0.96300
O879        O  0.53467098  0.50652329  0.46128457    -0.89600
O880        O  0.48112250  0.50684824  0.45695339    -0.92400
C881        C  0.50331696  0.49033293  0.62886440     1.01300
C882        C  0.44034413  0.44914746  0.54601728     1.14200
C883        C  0.56648858  0.44989985  0.55772196     1.05000
O884        O  0.58605690  0.51985613  0.55311671    -0.94600
O885        O  0.57777395  0.53848307  0.49118614    -0.90300
O886        O  0.54877835  0.56160699  0.46419399    -0.83500
C887        C  0.57113401  0.55758666  0.47472878     1.11700
O888        O  0.51032336  0.42710269  0.44800092    -0.96600
Zr889      Zr  0.50788023  0.47200413  0.45176581     1.88900
O890        O  0.50925226  0.53349754  0.40757875    -0.73200
O891        O  0.58722716  0.48541353  0.47712778    -0.52500
O892        O  0.54602105  0.45738524  0.42536220    -0.97200
O893        O  0.47246455  0.45425177  0.42169200    -0.54400
O894        O  0.50822236  0.49214491  0.39878682    -0.73700
C895        C  0.50883796  0.51443283  0.38852287     0.98600
O896        O  0.50576266  0.58438752  0.45026782    -0.62600
O897        O  0.42188378  0.51826922  0.54100628    -0.57400
O898        O  0.46877476  0.56345784  0.46095928    -0.94000
O899        O  0.43672659  0.54052053  0.48116334    -0.92500
O900        O  0.46536969  0.54883369  0.59484937    -0.92800
O901        O  0.49897615  0.57879858  0.56665871    -0.91600
C902        C  0.44558496  0.55991787  0.46725526     1.17500
H903        H  0.46475722  0.49688520  0.57409488     0.33400
H904        H  0.53923223  0.55350147  0.52410666     0.44300
H905        H  0.47114731  0.50939148  0.43728063     0.37800
H906        H  0.54048138  0.45307618  0.50045620     0.34300
H907        H  0.52886393  0.56021081  0.61668760     0.26000
H908        H  0.60281350  0.48551472  0.49045061     0.32000
H909        H  0.55223842  0.47157822  0.41241676     0.37900
H910        H  0.47166051  0.55485531  0.61656834     0.32400
H911        H  0.40605302  0.51421763  0.52940873     0.31200
H912        H  0.40878071  0.49617015  0.46891287     0.32900
H913        H  0.47782365  0.45341769  0.39824713     0.31900
H914        H  0.49923923  0.58351766  0.54297268     0.35900
H915        H  0.51525104  0.59397420  0.46709423     0.28600
H916        H  0.50789349  0.41585274  0.57727300     0.32800
H917        H  0.51070715  0.42316908  0.42399330     0.35700
H918        H  0.42213981  0.50721749  0.56047207     0.28300
H919        H  0.51572154  0.58546174  0.42969351     0.41200
H920        H  0.57843117  0.53537317  0.56127357     0.31200
H921        H  0.54633777  0.53848922  0.60593426     0.38800
H922        H  0.45940855  0.46717348  0.42200325     0.30700
H923        H  0.58267049  0.46774459  0.47524532     0.30800
H924        H  0.51061402  0.41285091  0.53861937     0.31000
Zr925      Zr  0.98894221  0.53150685  0.29164395     2.17500
O926        O  0.98798703  0.57625298  0.29911573    -0.51300
O927        O  0.98906438  0.52334784  0.35078836    -0.74500
O928        O  0.94712098  0.54783412  0.30319887    -0.81300
O929        O  0.05890398  0.53378275  0.27473604    -0.83100
O930        O  0.91843989  0.52283217  0.27829480    -0.78700
O931        O  0.02795272  0.55281409  0.30376419    -0.90300
O932        O  0.99280416  0.48197460  0.35815308    -0.76300
O933        O  0.96493267  0.49490783  0.29851229    -0.85800
O934        O  0.01846760  0.49875713  0.29759402    -0.85500
O935        O  0.96438983  0.52817417  0.24188927    -0.72200
O936        O  0.01375834  0.53102658  0.24210772    -0.84400
Zr937      Zr  0.99324542  0.45684104  0.20481518     2.26400
Zr938      Zr  0.94088077  0.49089577  0.24854984     2.06300
Zr939      Zr  0.04227501  0.49721988  0.24752692     2.10000
Zr940      Zr  0.99447421  0.46232309  0.30410821     1.78800
O941        O  0.06983101  0.51409693  0.20538052    -0.93200
O942        O  0.96106874  0.44029735  0.33211501    -0.41000
O943        O  0.01823427  0.46044585  0.25420442    -0.77600
O944        O  0.96939608  0.45720536  0.25538650    -0.96300
O945        O  0.96453835  0.48999413  0.19835926    -0.89600
O946        O  0.01805271  0.49298005  0.19770172    -0.92400
C947        C  0.99082807  0.50416115  0.36913549     1.01300
C948        C  0.05070692  0.55076365  0.29419045     1.14200
C949        C  0.92452783  0.54182366  0.29562492     1.05000
O950        O  0.90966697  0.47207412  0.28412917    -0.94600
O951        O  0.92289116  0.45459523  0.22243250    -0.90300
O952        O  0.95474660  0.43303062  0.19902212    -0.83500
C953        C  0.93171838  0.43572785  0.20707939     1.11700
O954        O  0.98589177  0.57126556  0.19360671    -0.96600
Zr955      Zr  0.98921568  0.52635792  0.19279660     1.88900
O956        O  0.99309398  0.46637219  0.14558012    -0.73200
O957        O  0.91035628  0.50712769  0.20932366    -0.52500
O958        O  0.95106944  0.54033923  0.16548258    -0.97200
O959        O  0.02423657  0.54667568  0.16571849    -0.54400
O960        O  0.99046017  0.50781948  0.13841007    -0.73700
C961        C  0.99175538  0.48567789  0.12728090     0.98600
O962        O  0.99265667  0.41466339  0.18302230    -0.62600
O963        O  0.07792668  0.48543324  0.28174857    -0.57400
O964        O  0.03398444  0.43655763  0.20412633    -0.94000
O965        O  0.06363498  0.45974484  0.22998219    -0.92500
O966        O  0.03238949  0.44888226  0.33227057    -0.92800
O967        O  0.00026533  0.41773248  0.30301031    -0.91600
C968        C  0.05636703  0.44018478  0.21459911     1.17500
H969        H  0.02924550  0.50147904  0.31655940     0.33400
H970        H  0.96060196  0.44186477  0.25861121     0.44300
H971        H  0.02874371  0.49145003  0.17858350     0.37800
H972        H  0.95336401  0.54219667  0.23978218     0.34300
H973        H  0.96802682  0.43630896  0.35424361     0.26000
H974        H  0.89396305  0.50376508  0.21963850     0.32000
H975        H  0.94560678  0.52629630  0.15140496     0.37900
H976        H  0.04580271  0.45123564  0.31577306     0.32400
H977        H  0.09181302  0.49608859  0.27427542     0.31200
H978        H  0.07450461  0.49980734  0.19131092     0.32900
H979        H  0.03481114  0.53313966  0.15704642     0.31900
H980        H  0.00082171  0.41340322  0.27913567     0.35900
H981        H  0.00480257  0.41423396  0.16458005     0.28600
H982        H  0.98033655  0.57918657  0.32110079     0.32800
H983        H  0.98453399  0.57625316  0.17007553     0.35700
H984        H  0.07398063  0.49143213  0.30435251     0.28300
H985        H  0.99999695  0.40414072  0.20056797     0.41200
H986        H  0.91643411  0.45552213  0.28933920     0.31200
H987        H  0.94823855  0.45303393  0.33657240     0.38800
H988        H  0.03417937  0.55397224  0.18407609     0.30700
H989        H  0.91222959  0.52529019  0.21069666     0.30800
H990        H  0.97562272  0.58246412  0.28282371     0.31000
Zr991      Zr  0.99104730  0.53713821  0.78935285     2.17500
O992        O  0.99058672  0.58005048  0.80831220    -0.51300
O993        O  0.98869929  0.52935074  0.84907029    -0.74500
O994        O  0.94944160  0.55549145  0.79061411    -0.81300
O995        O  0.06105235  0.54294104  0.77097443    -0.83100
O996        O  0.92157867  0.52978210  0.76552452    -0.78700
O997        O  0.02795649  0.56337670  0.79303607    -0.90300
O998        O  0.99208562  0.48818913  0.85796254    -0.76300
O999        O  0.96724406  0.50035505  0.79610948    -0.85800
O1000       O  0.02061303  0.50510810  0.79982155    -0.85500
O1001       O  0.96903364  0.53206156  0.73739368    -0.72200
O1002       O  0.01756934  0.53573124  0.74148240    -0.84400
Zr1003     Zr  0.00054202  0.45972175  0.70689816     2.26400
Zr1004     Zr  0.94547077  0.49478101  0.74452672     2.06300
Zr1005     Zr  0.04639989  0.50301977  0.75162340     2.10000
Zr1006     Zr  0.99692696  0.46815991  0.80506969     1.78800
O1007       O  0.08000813  0.51857906  0.71700386    -0.93200
O1008       O  0.96227522  0.44705937  0.83173082    -0.41000
O1009       O  0.02347317  0.46543462  0.75774130    -0.77600
O1010       O  0.97402973  0.46155371  0.75481697    -0.96300
O1011       O  0.97161434  0.49231301  0.69667425    -0.89600
O1012       O  0.02463043  0.49642813  0.70051999    -0.92400
C1013       C  0.98946290  0.51043454  0.86815643     1.01300
C1014       C  0.05105126  0.56187332  0.78485987     1.14200
C1015       C  0.92731499  0.54993126  0.78063966     1.05000
O1016       O  0.91556372  0.47609326  0.78217798    -0.94600
O1017       O  0.92969261  0.45812021  0.71674810    -0.90300
O1018       O  0.96199208  0.43811167  0.69181081    -0.83500
C1019       C  0.93878533  0.44036541  0.69935520     1.11700
O1020       O  0.99290699  0.57357669  0.68602273    -0.96600
Zr1021     Zr  0.99581016  0.52878018  0.69044581     1.88900
O1022       O  0.00123100  0.46588203  0.64709135    -0.73200
O1023       O  0.91340640  0.50525282  0.70388149    -0.52500
O1024       O  0.95910142  0.54285928  0.66000680    -0.97200
O1025       O  0.03269793  0.54682231  0.66482353    -0.54400
O1026       O  0.99827577  0.50716271  0.63804410    -0.73700
C1027       C  0.00004947  0.48474426  0.62796708     0.98600
O1028       O  0.00381577  0.41463643  0.70765512    -0.62600
O1029       O  0.07571885  0.49134288  0.79518019    -0.57400
O1030       O  0.04297511  0.44459340  0.69721663    -0.94000
O1031       O  0.06949620  0.46966311  0.72616049    -0.92500
O1032       O  0.03414477  0.45640799  0.83616692    -0.92800
O1033       O  0.00267254  0.42357720  0.80751978    -0.91600
C1034       C  0.06485603  0.45095921  0.70753899     1.17500
H1035       H  0.03046595  0.50854675  0.81944578     0.33400
H1036       H  0.96503666  0.44621958  0.75721110     0.44300
H1037       H  0.03630001  0.49478825  0.68244723     0.37800
H1038       H  0.95838670  0.54595014  0.73244727     0.34300
H1039       H  0.96899046  0.44178315  0.85349566     0.26000
H1040       H  0.89744920  0.50422744  0.71611859     0.32000
H1041       H  0.95051449  0.52754776  0.65278139     0.37900
H1042       H  0.02786120  0.45106078  0.85803876     0.32400
H1043       H  0.07416039  0.47317140  0.79670866     0.31200
H1044       H  0.09507775  0.51819395  0.73132415     0.32900
H1045       H  0.03925003  0.53393553  0.64969685     0.31900
H1046       H  0.99351664  0.41700784  0.78799765     0.35900
H1047       H  0.01859995  0.41082431  0.72155526     0.28600
H1048       H  0.97920233  0.58059646  0.82758461     0.32800
H1049       H  0.99457674  0.57725818  0.66210396     0.35700
H1050       H  0.09242450  0.49402740  0.78540885     0.28300
H1051       H  0.98968346  0.40886371  0.72133989     0.41200
H1052       H  0.91695526  0.48585815  0.80292498     0.31200
H1053       H  0.95023312  0.46032341  0.83719865     0.38800
H1054       H  0.04519599  0.54784458  0.68294890     0.30700
H1055       H  0.91573487  0.52307940  0.69955533     0.30800
H1056       H  0.98200438  0.58956763  0.79070823     0.31000
C1057       C  0.99520520  0.49261032  0.46358638     0.18700
C1058       C  0.00526149  0.47333247  0.48259300    -0.19400
C1059       C  0.00637582  0.47504590  0.51715094    -0.11700
C1060       C  0.99719944  0.49611645  0.53352524     0.20900
C1061       C  0.98711832  0.51540545  0.51457077    -0.21000
C1062       C  0.98594540  0.51367319  0.48001481    -0.11900
C1063       C  0.99823848  0.49911775  0.57010034    -0.16000
C1064       C  0.00049977  0.48034302  0.59176547    -0.29900
C1065       C  0.99442760  0.48960281  0.42692644    -0.04100
C1066       C  0.99069478  0.50819352  0.40539882    -0.40700
H1067       H  0.01253888  0.45691204  0.47060759     0.12100
H1068       H  0.01483215  0.46002505  0.53071444     0.11700
H1069       H  0.97987994  0.53183514  0.52659406     0.11200
H1070       H  0.97746836  0.52873497  0.46657859     0.11400
H1071       H  0.99599253  0.51779476  0.57962362     0.14100
H1072       H  0.00176486  0.46139669  0.58311185     0.12900
H1073       H  0.99790940  0.47117715  0.41718977     0.10600
H1074       H  0.98822761  0.52698433  0.41415753     0.12600
C1075       C  0.98885063  0.49904096  0.03292048     0.18700
C1076       C  0.98337272  0.52029416  0.01438387    -0.19400
C1077       C  0.98301375  0.51958595  0.97969760    -0.11700
C1078       C  0.98827947  0.49748039  0.96266613     0.20900
C1079       C  0.99351157  0.47618752  0.98120924    -0.21000
C1080       C  0.99392006  0.47690146  0.01584369    -0.11900
C1081       C  0.98868461  0.49542440  0.92584273    -0.16000
C1082       C  0.98748213  0.51450466  0.90442483    -0.29900
C1083       C  0.98941347  0.50115045  0.06976435    -0.04100
C1084       C  0.99165757  0.48200855  0.09089660    -0.40700
H1085       H  0.97933094  0.53761065  0.02681573     0.12100
H1086       H  0.97850893  0.53637408  0.96663351     0.11700
H1087       H  0.99761776  0.45887015  0.96881234     0.11200
H1088       H  0.99854225  0.46009192  0.02876383     0.11400
H1089       H  0.99087864  0.47688206  0.91583183     0.14100
H1090       H  0.98570513  0.53335132  0.91321974     0.12900
H1091       H  0.98753670  0.51964968  0.08003149     0.10600
H1092       H  0.99300340  0.46320372  0.08183875     0.12600
C1093       C  0.50478492  0.50233994  0.72343469     0.18700
C1094       C  0.49821163  0.52277429  0.74305507    -0.19400
C1095       C  0.49957645  0.52169286  0.77759179    -0.11700
C1096       C  0.50789100  0.50008878  0.79341558     0.20900
C1097       C  0.51446545  0.47960831  0.77375488    -0.21000
C1098       C  0.51306163  0.48069011  0.73915629    -0.11900
C1099       C  0.50956374  0.49776819  0.83012108    -0.16000
C1100       C  0.50691050  0.51661843  0.85187918    -0.29900
C1101       C  0.50356101  0.50497744  0.68683525    -0.04100
C1102       C  0.50395700  0.48604373  0.66502753    -0.40700
H1103       H  0.49184061  0.53970573  0.73158732     0.12100
H1104       H  0.49383918  0.53780781  0.79144716     0.11700
H1105       H  0.52093059  0.46270784  0.78521175     0.11200
H1106       H  0.51891155  0.46470098  0.72505458     0.11400
H1107       H  0.51322186  0.47938786  0.83969187     0.14100
H1108       H  0.50361981  0.53528675  0.84344676     0.12900
H1109       H  0.50190532  0.52368043  0.67742594     0.10600
H1110       H  0.50469450  0.46709340  0.67350500     0.12600
C1111       C  0.50558092  0.50279589  0.22390380     0.18700
C1112       C  0.51096665  0.52409672  0.24263182    -0.19400
C1113       C  0.51194111  0.52332822  0.27724784    -0.11700
C1114       C  0.50726095  0.50113885  0.29405302     0.20900
C1115       C  0.50197153  0.47978371  0.27532846    -0.21000
C1116       C  0.50104330  0.48054960  0.24067372    -0.11900
C1117       C  0.50801717  0.49910732  0.33081226    -0.16000
C1118       C  0.50876177  0.51835666  0.35224668    -0.29900
C1119       C  0.50411039  0.50505751  0.18718088    -0.04100
C1120       C  0.50486036  0.48595716  0.16556516    -0.40700
H1121       H  0.51455728  0.54148356  0.23037971     0.12100
H1122       H  0.51658817  0.54013193  0.29042870     0.11700
H1123       H  0.49828964  0.46241455  0.28759351     0.11200
H1124       H  0.49631146  0.46380526  0.22736864     0.11400
H1125       H  0.50739758  0.48049773  0.34073991     0.14100
H1126       H  0.50873486  0.53723042  0.34348887     0.12900
H1127       H  0.50299775  0.52370116  0.17743992     0.10600
H1128       H  0.50706243  0.46718418  0.17430912     0.12600
C1129       C  0.88101025  0.39764031  0.69461477     0.18700
C1130       C  0.85540295  0.40068376  0.70089147    -0.19400
C1131       C  0.83892387  0.38069783  0.69843760    -0.11700
C1132       C  0.84776822  0.35710081  0.68960451     0.20900
C1133       C  0.87342371  0.35398772  0.68388486    -0.21000
C1134       C  0.88988425  0.37396893  0.68626865    -0.11900
C1135       C  0.83107197  0.33526991  0.68589533    -0.16000
C1136       C  0.80640258  0.33686182  0.67954976    -0.29900
C1137       C  0.89795720  0.41909789  0.69982797    -0.04100
C1138       C  0.92164722  0.42037815  0.68866194    -0.40700
H1139       H  0.84812820  0.41859714  0.70803423     0.12100
H1140       H  0.81944533  0.38381216  0.70404597     0.11700
H1141       H  0.88079101  0.33597525  0.67741186     0.11200
H1142       H  0.90953941  0.37053138  0.68237090     0.11400
H1143       H  0.83988093  0.31718740  0.68538419     0.14100
H1144       H  0.79744794  0.35476543  0.67768313     0.12900
H1145       H  0.89067639  0.43429843  0.71459665     0.10600
H1146       H  0.92922621  0.40584390  0.67309538     0.12600
C1147       C  0.60144288  0.38934926  0.57528221     0.18700
C1148       C  0.59852140  0.36528820  0.56268114    -0.19400
C1149       C  0.61804847  0.34810949  0.56488066    -0.11700
C1150       C  0.64086929  0.35473577  0.58001867     0.20900
C1151       C  0.64337597  0.37859888  0.59341651    -0.21000
C1152       C  0.62393177  0.39563588  0.59130775    -0.11900
C1153       C  0.66240949  0.33759152  0.58383014    -0.16000
C1154       C  0.66367975  0.31414942  0.57236028    -0.29900
C1155       C  0.58108524  0.40767524  0.57062791    -0.04100
C1156       C  0.58567882  0.43202449  0.56803522    -0.40700
H1157       H  0.58125394  0.35992142  0.55051600     0.12100
H1158       H  0.61505561  0.32985706  0.55470230     0.11700
H1159       H  0.66052228  0.38414651  0.60574674     0.11200
H1160       H  0.62660366  0.41365536  0.60246530     0.11400
H1161       H  0.67815559  0.34476185  0.59801505     0.14100
H1162       H  0.64852983  0.30614047  0.55800845     0.12900
H1163       H  0.56229492  0.40082221  0.56600411     0.10600
H1164       H  0.60471353  0.43883992  0.56960074     0.12600
C1165       C  0.74757406  0.24519970  0.83950016     0.18700
C1166       C  0.72547436  0.24437410  0.85806887    -0.19400
C1167       C  0.72614001  0.24524239  0.89266354    -0.11700
C1168       C  0.74910848  0.24673806  0.90964175     0.20900
C1169       C  0.77125408  0.24725345  0.89109037    -0.21000
C1170       C  0.77058213  0.24639404  0.85643971    -0.11900
C1171       C  0.75106043  0.24805350  0.94641407    -0.16000
C1172       C  0.73197678  0.24423217  0.96751937    -0.29900
C1173       C  0.74539208  0.24451131  0.80274058    -0.04100
C1174       C  0.76424556  0.24860493  0.78137888    -0.40700
H1175       H  0.70748247  0.24332461  0.84571837     0.12100
H1176       H  0.70854577  0.24508110  0.90562356     0.11700
H1177       H  0.78923317  0.24826404  0.90348136     0.11200
H1178       H  0.78813349  0.24652202  0.84334952     0.11400
H1179       H  0.76948262  0.25193178  0.95663754     0.14100
H1180       H  0.71337857  0.24000037  0.95848331     0.12900
H1181       H  0.72688768  0.24072361  0.79273069     0.10600
H1182       H  0.78289984  0.25288504  0.79020764     0.12600
C1183       C  0.74722381  0.23365432  0.33923443     0.18700
C1184       C  0.72990272  0.22166293  0.35967365    -0.19400
C1185       C  0.73142048  0.22388169  0.39424977    -0.11700
C1186       C  0.75026858  0.23834793  0.40907263     0.20900
C1187       C  0.76773439  0.25008274  0.38865228    -0.21000
C1188       C  0.76612653  0.24801761  0.35414646    -0.11900
C1189       C  0.75294865  0.24098836  0.44563945    -0.16000
C1190       C  0.73373197  0.23968304  0.46712791    -0.29900
C1191       C  0.74409728  0.23199028  0.30262472    -0.04100
C1192       C  0.76260201  0.23643733  0.28089567    -0.40700
H1193       H  0.71514688  0.21050790  0.34883430     0.12100
H1194       H  0.71805720  0.21401492  0.40924401     0.11700
H1195       H  0.78245224  0.26130116  0.39945759     0.11200
H1196       H  0.77937824  0.25820167  0.33939510     0.11400
H1197       H  0.77157504  0.24497225  0.45508642     0.14100
H1198       H  0.71485918  0.23674070  0.45798049     0.12900
H1199       H  0.72569619  0.22699033  0.29325957     0.10600
H1200       H  0.78141675  0.24018565  0.28966478     0.12600
C1201       C  0.87570137  0.39105293  0.21105288     0.18700
C1202       C  0.85036408  0.39338508  0.21933895    -0.19400
C1203       C  0.83429146  0.37308640  0.21716773    -0.11700
C1204       C  0.84333838  0.34994514  0.20668421     0.20900
C1205       C  0.86883120  0.34740217  0.19966869    -0.21000
C1206       C  0.88488131  0.36766693  0.20182162    -0.11900
C1207       C  0.82686163  0.32819187  0.20173524    -0.16000
C1208       C  0.80250368  0.33017895  0.19402970    -0.29900
C1209       C  0.89209318  0.41309993  0.21399538    -0.04100
C1210       C  0.91475301  0.41491170  0.19978868    -0.40700
H1211       H  0.84293139  0.41103500  0.22733003     0.12100
H1212       H  0.81492119  0.37561154  0.22388986     0.11700
H1213       H  0.87631904  0.32970605  0.19196097     0.11200
H1214       H  0.90443516  0.36471070  0.19661169     0.11400
H1215       H  0.83570443  0.31014798  0.20035245     0.14100
H1216       H  0.79374542  0.34822185  0.19278253     0.12900
H1217       H  0.88526707  0.42838339  0.22900098     0.10600
H1218       H  0.92184878  0.40019847  0.18413186     0.12600
C1219       C  0.61101288  0.39853289  0.07466301     0.18700
C1220       C  0.60470344  0.37354218  0.07018045    -0.19400
C1221       C  0.62282934  0.35508639  0.07288256    -0.11700
C1222       C  0.64770166  0.36131557  0.08032986     0.20900
C1223       C  0.65397879  0.38626690  0.08508343    -0.21000
C1224       C  0.63589452  0.40472668  0.08221772    -0.11900
C1225       C  0.66727311  0.34244981  0.08597690    -0.16000
C1226       C  0.66647496  0.31896752  0.07453964    -0.29900
C1227       C  0.59097422  0.41731184  0.07142009    -0.04100
C1228       C  0.59495467  0.44144636  0.06517412    -0.40700
H1229       H  0.58561749  0.36824987  0.06459279     0.12100
H1230       H  0.61711277  0.33603965  0.07003085     0.11700
H1231       H  0.67296608  0.39149983  0.09135226     0.11200
H1232       H  0.64145964  0.42364695  0.08664572     0.11400
H1233       H  0.68328270  0.34844226  0.10062582     0.14100
H1234       H  0.65118669  0.31265625  0.05891891     0.12900
H1235       H  0.57190071  0.41043265  0.07155172     0.10600
H1236       H  0.61375980  0.44865334  0.06293874     0.12600
C1237       C  0.89260942  0.61011913  0.80202752     0.18700
C1238       C  0.88995684  0.62432522  0.83093411    -0.19400
C1239       C  0.87288121  0.64379823  0.83198381    -0.11700
C1240       C  0.85860920  0.64981834  0.80382511     0.20900
C1241       C  0.86201356  0.63636622  0.77441975    -0.21000
C1242       C  0.87869174  0.61644366  0.77359946    -0.11900
C1243       C  0.83970228  0.66970098  0.80555527    -0.16000
C1244       C  0.82316214  0.66998850  0.83043136    -0.29900
C1245       C  0.91109853  0.58977903  0.80156389    -0.04100
C1246       C  0.90742044  0.56862696  0.78457285    -0.40700
H1247       H  0.90084203  0.62008841  0.85289462     0.12100
H1248       H  0.87083632  0.65425188  0.85478456     0.11700
H1249       H  0.85134233  0.64090022  0.75239108     0.11200
H1250       H  0.88099222  0.60626314  0.75064297     0.11400
H1251       H  0.83891495  0.68350285  0.78612827     0.14100
H1252       H  0.82325137  0.65484307  0.84804186     0.12900
H1253       H  0.92815463  0.59228730  0.81592131     0.10600
H1254       H  0.88974925  0.56546178  0.77188502     0.12600
C1255       C  0.64281864  0.65667399  0.95582418     0.18700
C1256       C  0.61741296  0.65675599  0.94710549    -0.19400
C1257       C  0.60205378  0.63660026  0.95455089    -0.11700
C1258       C  0.61182254  0.61577966  0.97097489     0.20900
C1259       C  0.63700263  0.61617967  0.98087485    -0.21000
C1260       C  0.65233218  0.63631970  0.97345503    -0.11900
C1261       C  0.59646470  0.59355230  0.97886600    -0.16000
C1262       C  0.57457245  0.58802478  0.96387310    -0.29900
C1263       C  0.65885694  0.67789782  0.94588764    -0.04100
C1264       C  0.68355303  0.67548273  0.94083953    -0.40700
H1265       H  0.60948062  0.67233544  0.93401259     0.12100
H1266       H  0.58257425  0.63763360  0.94756864     0.11700
H1267       H  0.64495356  0.60070202  0.99416780     0.11200
H1268       H  0.67155065  0.63587490  0.98182303     0.11400
H1269       H  0.60383593  0.58090165  0.99732095     0.14100
H1270       H  0.56702389  0.60006114  0.94492434     0.12900
H1271       H  0.64985197  0.69530903  0.93989163     0.10600
H1272       H  0.69231936  0.65758648  0.94408266     0.12600
C1273       C  0.75222416  0.74404601  0.58640358     0.18700
C1274       C  0.77249378  0.73579066  0.60562747    -0.19400
C1275       C  0.77077762  0.73453821  0.64018216    -0.11700
C1276       C  0.74874688  0.74188912  0.65634051     0.20900
C1277       C  0.72833928  0.74971480  0.63706960    -0.21000
C1278       C  0.73004536  0.75094678  0.60254652    -0.11900
C1279       C  0.74610296  0.74183253  0.69303317    -0.16000
C1280       C  0.76542621  0.74162271  0.71465919    -0.29900
C1281       C  0.75540942  0.74615609  0.54990120    -0.04100
C1282       C  0.73634735  0.74740303  0.52794312    -0.40700
H1283       H  0.78977644  0.73027701  0.59384171     0.12100
H1284       H  0.78670007  0.72770825  0.65392480     0.11700
H1285       H  0.71111844  0.75544012  0.64883833     0.11200
H1286       H  0.71416685  0.75795131  0.58887850     0.11400
H1287       H  0.72722859  0.74342423  0.70263779     0.14100
H1288       H  0.78453056  0.74120048  0.70588992     0.12900
H1289       H  0.77446447  0.74624307  0.54070925     0.10600
H1290       H  0.71715461  0.74629321  0.53626473     0.12600
C1291       C  0.75120965  0.76615621  0.08546763     0.18700
C1292       C  0.77307350  0.76880415  0.10462858    -0.19400
C1293       C  0.77221982  0.76834140  0.13931795    -0.11700
C1294       C  0.74932772  0.76510726  0.15575061     0.20900
C1295       C  0.72743963  0.76291577  0.13658165    -0.21000
C1296       C  0.72829100  0.76333935  0.10194304    -0.11900
C1297       C  0.74700406  0.76408627  0.19256999    -0.16000
C1298       C  0.76622457  0.76235665  0.21427690    -0.29900
C1299       C  0.75354096  0.76562703  0.04864336    -0.04100
C1300       C  0.73423626  0.76540944  0.02693505    -0.40700
H1301       H  0.79100179  0.77112517  0.09268258     0.12100
H1302       H  0.78952688  0.77061671  0.15286861     0.11700
H1303       H  0.70950732  0.76053050  0.14848414     0.11200
H1304       H  0.71094473  0.76102254  0.08852249     0.11400
H1305       H  0.72810776  0.76429457  0.20230050     0.14100
H1306       H  0.78534969  0.76161122  0.20566631     0.12900
H1307       H  0.77243543  0.76525928  0.03890385     0.10600
H1308       H  0.71509444  0.76615627  0.03544032     0.12600
C1309       C  0.84732171  0.63489031  0.32564802     0.18700
C1310       C  0.84242930  0.60961182  0.32967545    -0.19400
C1311       C  0.86157721  0.59212945  0.32683567    -0.11700
C1312       C  0.88621992  0.59959785  0.32001867     0.20900
C1313       C  0.89123490  0.62493580  0.31705272    -0.21000
C1314       C  0.87206925  0.64240308  0.31973669    -0.11900
C1315       C  0.90713766  0.58172096  0.31543299    -0.16000
C1316       C  0.90372057  0.55805704  0.30602362    -0.29900
C1317       C  0.82643944  0.65280906  0.32982125    -0.04100
C1318       C  0.82674316  0.67615551  0.31831900    -0.40700
H1319       H  0.82365896  0.60333804  0.33499342     0.12100
H1320       H  0.85696606  0.57289610  0.33041666     0.11700
H1321       H  0.91007089  0.63125923  0.31228116     0.11200
H1322       H  0.87689211  0.66171975  0.31776226     0.11400
H1323       H  0.92607385  0.58890835  0.31684062     0.14100
H1324       H  0.88496664  0.55098238  0.30220036     0.12900
H1325       H  0.81017130  0.64646865  0.34337117     0.10600
H1326       H  0.84250101  0.68277239  0.30408684     0.12600
C1327       C  0.64163074  0.65435705  0.44100663     0.18700
C1328       C  0.63625470  0.64458782  0.47229823    -0.19400
C1329       C  0.61883965  0.62543553  0.47546423    -0.11700
C1330       C  0.60602256  0.61627504  0.44742209     0.20900
C1331       C  0.61071025  0.62676172  0.41637856    -0.21000
C1332       C  0.62860585  0.64538316  0.41308412    -0.11900
C1333       C  0.58702239  0.59646535  0.45017725    -0.16000
C1334       C  0.59048719  0.57666949  0.46962502    -0.29900
C1335       C  0.66075130  0.67396830  0.43760477    -0.04100
C1336       C  0.67808858  0.67263848  0.41372554    -0.40700
H1337       H  0.64589677  0.65144702  0.49415457     0.12100
H1338       H  0.61509589  0.61806767  0.49985024     0.11700
H1339       H  0.60078994  0.62023171  0.39456214     0.11200
H1340       H  0.63209054  0.65298913  0.38875713     0.11400
H1341       H  0.57024853  0.59782424  0.43501554     0.14100
H1342       H  0.60804266  0.57463541  0.48299135     0.12900
H1343       H  0.66121576  0.68897707  0.45557592     0.10600
H1344       H  0.67858554  0.65642215  0.39771859     0.12600
C1345       C  0.64027817  0.85332222  0.44831109     0.18700
C1346       C  0.61434808  0.84954870  0.44677554    -0.19400
C1347       C  0.59774954  0.86917695  0.45228272    -0.11700
C1348       C  0.60683170  0.89304464  0.45961489     0.20900
C1349       C  0.63271675  0.89648103  0.46249352    -0.21000
C1350       C  0.64923524  0.87693055  0.45705531    -0.11900
C1351       C  0.59018875  0.91463518  0.46589244    -0.16000
C1352       C  0.56614439  0.91590957  0.45605492    -0.29900
C1353       C  0.65757795  0.83254162  0.44039486    -0.04100
C1354       C  0.68048743  0.83651919  0.42786587    -0.40700
H1355       H  0.60691658  0.83145755  0.44076224     0.12100
H1356       H  0.57793082  0.86543081  0.45110583     0.11700
H1357       H  0.64025330  0.91446442  0.46886367     0.11200
H1358       H  0.66901357  0.88042646  0.46001057     0.11400
H1359       H  0.59831702  0.93039575  0.47878626     0.14100
H1360       H  0.55787927  0.90087180  0.44192597     0.12900
H1361       H  0.65079805  0.81373049  0.44287766     0.10600
H1362       H  0.68653362  0.85528204  0.42307208     0.12600
C1363       C  0.65041042  0.13236759  0.54863012     0.18700
C1364       C  0.62453196  0.13606318  0.54596673    -0.19400
C1365       C  0.60831106  0.11612834  0.54104630    -0.11700
C1366       C  0.61758794  0.09185482  0.53861557     0.20900
C1367       C  0.64353760  0.08822487  0.53962601    -0.21000
C1368       C  0.65981344  0.10821094  0.54469924    -0.11900
C1369       C  0.60060053  0.07027088  0.53396879    -0.16000
C1370       C  0.57706888  0.07024320  0.54559480    -0.29900
C1371       C  0.66671932  0.15418724  0.55557264    -0.04100
C1372       C  0.68965020  0.15258870  0.56938142    -0.40700
H1373       H  0.61675424  0.15446257  0.54817409     0.12100
H1374       H  0.58852875  0.11989423  0.53881301     0.11700
H1375       H  0.65122156  0.06982195  0.53696194     0.11200
H1376       H  0.67967189  0.10461002  0.54528190     0.11400
H1377       H  0.60760507  0.05416022  0.52080525     0.14100
H1378       H  0.57046672  0.08592948  0.55995037     0.12900
H1379       H  0.65877407  0.17237770  0.55135633     0.10600
H1380       H  0.69735480  0.13465322  0.57550232     0.12600
C1381       C  0.49525593  0.00181969  0.78483021     0.18700
C1382       C  0.49066706  0.02315301  0.76606137    -0.19400
C1383       C  0.48952219  0.02207015  0.73140263    -0.11700
C1384       C  0.49318903  0.99951967  0.71463774     0.20900
C1385       C  0.49766715  0.97819234  0.73343167    -0.21000
C1386       C  0.49884992  0.97927706  0.76803696    -0.11900
C1387       C  0.49202510  0.99701165  0.67785723    -0.16000
C1388       C  0.49236644  0.01595901  0.65621925    -0.29900
C1389       C  0.49641992  0.00414201  0.82162490    -0.04100
C1390       C  0.49566694  0.98496614  0.84285646    -0.40700
H1391       H  0.48776423  0.04077214  0.77829592     0.12100
H1392       H  0.48546888  0.03888386  0.71812593     0.11700
H1393       H  0.50050609  0.96054621  0.72124432     0.11200
H1394       H  0.50293453  0.96243129  0.78120709     0.11400
H1395       H  0.49135642  0.97828406  0.66806997     0.14100
H1396       H  0.49399637  0.03486400  0.66489448     0.12900
H1397       H  0.49722689  0.02277640  0.83171789     0.10600
H1398       H  0.49420557  0.96615685  0.83379170     0.12600
C1399       C  0.49507988  0.99854122  0.28486075     0.18700
C1400       C  0.48563029  0.01847443  0.26657257    -0.19400
C1401       C  0.48397591  0.01723582  0.23201535    -0.11700
C1402       C  0.49217987  0.99606392  0.21492472     0.20900
C1403       C  0.50165144  0.97611708  0.23326605    -0.21000
C1404       C  0.50319862  0.97732272  0.26787547    -0.11900
C1405       C  0.49071372  0.99369888  0.17822079    -0.16000
C1406       C  0.48906770  0.01294115  0.15719742    -0.29900
C1407       C  0.49673472  0.00105567  0.32142640    -0.04100
C1408       C  0.49620333  0.98194627  0.34271916    -0.40700
H1409       H  0.47920689  0.03500876  0.27914407     0.12100
H1410       H  0.47593331  0.03274271  0.21900617     0.11700
H1411       H  0.50811697  0.95959312  0.22071869     0.11200
H1412       H  0.51113215  0.96184128  0.28110297     0.11400
H1413       H  0.49212330  0.97514018  0.16801908     0.14100
H1414       H  0.48894788  0.03175117  0.16655118     0.12900
H1415       H  0.49702038  0.01977890  0.33125917     0.10600
H1416       H  0.49453725  0.96313060  0.33357716     0.12600
C1417       C  0.59207652  0.88639728  0.93021327     0.18700
C1418       C  0.60094116  0.88020107  0.89860307    -0.19400
C1419       C  0.62039726  0.86312688  0.89502624    -0.11700
C1420       C  0.63084763  0.85158597  0.92305160     0.20900
C1421       C  0.62115705  0.85700210  0.95447285    -0.21000
C1422       C  0.60212216  0.87441590  0.95809876    -0.11900
C1423       C  0.65134878  0.83332056  0.92020737    -0.16000
C1424       C  0.66979328  0.83551801  0.89790484    -0.29900
C1425       C  0.57254975  0.90554590  0.93400454    -0.04100
C1426       C  0.57424578  0.92255939  0.95822322    -0.40700
H1427       H  0.59320986  0.88900491  0.87678832     0.12100
H1428       H  0.62703621  0.85875500  0.87037312     0.11700
H1429       H  0.62865356  0.84805415  0.97632541     0.11200
H1430       H  0.59515647  0.87844353  0.98270935     0.11400
H1431       H  0.65196169  0.81840084  0.93811389     0.14100
H1432       H  0.67022268  0.85142964  0.88162511     0.12900
H1433       H  0.55741136  0.90635701  0.91599842     0.10600
H1434       H  0.59059941  0.92266481  0.97432634     0.12600
C1435       C  0.65434588  0.11996158  0.07765019     0.18700
C1436       C  0.63876748  0.11009020  0.10214780    -0.19400
C1437       C  0.61972866  0.09345168  0.09365440    -0.11700
C1438       C  0.61630968  0.08602901  0.06048178     0.20900
C1439       C  0.63226763  0.09547861  0.03612900    -0.21000
C1440       C  0.65094984  0.11245749  0.04452210    -0.11900
C1441       C  0.59697915  0.06784712  0.05041598    -0.16000
C1442       C  0.57480820  0.06544534  0.06571811    -0.29900
C1443       C  0.67418856  0.13781398  0.08724493    -0.04100
C1444       C  0.67964067  0.15754064  0.06852077    -0.40700
H1445       H  0.64117925  0.11548723  0.12786361     0.12100
H1446       H  0.60811016  0.08605664  0.11311616     0.11700
H1447       H  0.63014746  0.08982422  0.01045547     0.11200
H1448       H  0.66299976  0.11938009  0.02519352     0.11400
H1449       H  0.60047304  0.05723290  0.02794716     0.14100
H1450       H  0.57007942  0.07730682  0.08654357     0.12900
H1451       H  0.68295510  0.13589642  0.11145837     0.10600
H1452       H  0.66901464  0.16084596  0.04594656     0.12600
C1453       C  0.14114126  0.64601211  0.79712147     0.18700
C1454       C  0.11528203  0.64998392  0.79918805    -0.19400
C1455       C  0.09848259  0.63048423  0.79397942    -0.11700
C1456       C  0.10733771  0.60663364  0.78632703     0.20900
C1457       C  0.13312722  0.60300660  0.78291366    -0.21000
C1458       C  0.14984094  0.62240505  0.78816161    -0.11900
C1459       C  0.09057664  0.58514026  0.78062426    -0.16000
C1460       C  0.06687086  0.58375060  0.79145605    -0.29900
C1461       C  0.15868202  0.66662235  0.80456706    -0.04100
C1462       C  0.18163417  0.66254913  0.81716491    -0.40700
H1463       H  0.10808643  0.66811243  0.80540540     0.12100
H1464       H  0.07870513  0.63429619  0.79564814     0.11700
H1465       H  0.14043730  0.58498366  0.77636496     0.11200
H1466       H  0.16955784  0.61882510  0.78490141     0.11400
H1467       H  0.09847830  0.56938246  0.76756946     0.14100
H1468       H  0.05866721  0.59889883  0.80531740     0.12900
H1469       H  0.15210251  0.68545208  0.80142706     0.10600
H1470       H  0.18756694  0.64380813  0.82245236     0.12600
C1471       C  0.39427430  0.59700440  0.93046961     0.18700
C1472       C  0.39700990  0.62269912  0.93284194    -0.19400
C1473       C  0.37692886  0.63833277  0.92599141    -0.11700
C1474       C  0.35362284  0.62853978  0.91644482     0.20900
C1475       C  0.35114372  0.60290329  0.91269235    -0.21000
C1476       C  0.37120499  0.58722002  0.91979256    -0.11900
C1477       C  0.33200834  0.64470770  0.90879646    -0.16000
C1478       C  0.32876610  0.66685982  0.92339518    -0.29900
C1479       C  0.41600137  0.58120845  0.93900693    -0.04100
C1480       C  0.41383305  0.55764628  0.94891613    -0.40700
H1481       H  0.41470741  0.63071975  0.94036252     0.12100
H1482       H  0.37985716  0.65806482  0.92771831     0.11700
H1483       H  0.33355581  0.59498458  0.90455254     0.11200
H1484       H  0.36860676  0.56756458  0.91643837     0.11400
H1485       H  0.31846555  0.63817337  0.89060499     0.14100
H1486       H  0.34171162  0.67304945  0.94251579     0.12900
H1487       H  0.43433436  0.58984232  0.93925740     0.10600
H1488       H  0.39555393  0.54914449  0.95090850     0.12600
C1489       C  0.38994916  0.89387009  0.92642262     0.18700
C1490       C  0.38960740  0.87112618  0.94281145    -0.19400
C1491       C  0.36890132  0.85552674  0.94022424    -0.11700
C1492       C  0.34803395  0.86235985  0.92089789     0.20900
C1493       C  0.34872105  0.88489121  0.90384284    -0.21000
C1494       C  0.36940980  0.90051862  0.90654811    -0.11900
C1495       C  0.32597014  0.84601879  0.91590381    -0.16000
C1496       C  0.32160413  0.82531759  0.93328192    -0.29900
C1497       C  0.41173045  0.91039376  0.93138285    -0.04100
C1498       C  0.40954447  0.93508831  0.93171360    -0.40700
H1499       H  0.40531214  0.86554348  0.95807582     0.12100
H1500       H  0.36973342  0.83809248  0.95303006     0.11700
H1501       H  0.33319070  0.89041329  0.88823416     0.11200
H1502       H  0.36935365  0.91763439  0.89282420     0.11400
H1503       H  0.31334631  0.85065705  0.89567487     0.14100
H1504       H  0.33375687  0.81994647  0.95354309     0.12900
H1505       H  0.42927551  0.90209403  0.93920923     0.10600
H1506       H  0.39149475  0.94360623  0.92716432     0.12600
C1507       C  0.24843298  0.75467160  0.58541773     0.18700
C1508       C  0.22709116  0.75070069  0.60480226    -0.19400
C1509       C  0.22853196  0.75080857  0.63942325    -0.11700
C1510       C  0.25150317  0.75506949  0.65561675     0.20900
C1511       C  0.27275395  0.75949784  0.63621170    -0.21000
C1512       C  0.27130461  0.75938146  0.60157355    -0.11900
C1513       C  0.25457637  0.75444866  0.69236171    -0.16000
C1514       C  0.23578937  0.75184979  0.71425409    -0.29900
C1515       C  0.24568033  0.75379886  0.54865895    -0.04100
C1516       C  0.26477687  0.75276104  0.52695205    -0.40700
H1517       H  0.20918101  0.74715829  0.59308258     0.12100
H1518       H  0.21160796  0.74718525  0.65299538     0.11700
H1519       H  0.29067778  0.76298310  0.64791965     0.11200
H1520       H  0.28814512  0.76312475  0.58784383     0.11400
H1521       H  0.27354553  0.75606685  0.70186694     0.14100
H1522       H  0.21655728  0.75060781  0.70600257     0.12900
H1523       H  0.22669560  0.75304840  0.53902742     0.10600
H1524       H  0.28398358  0.75256580  0.53554243     0.12600
C1525       C  0.24960020  0.73752016  0.15559834     0.18700
C1526       C  0.27186276  0.73507409  0.13749537    -0.19400
C1527       C  0.27173348  0.73553638  0.10281616    -0.11700
C1528       C  0.24916747  0.73849366  0.08528641     0.20900
C1529       C  0.22691060  0.74094017  0.10336012    -0.21000
C1530       C  0.22703905  0.74048549  0.13803662    -0.11900
C1531       C  0.24753672  0.73865029  0.04840825    -0.16000
C1532       C  0.26715553  0.73920413  0.02748513    -0.29900
C1533       C  0.25122697  0.73721307  0.19252950    -0.04100
C1534       C  0.23170365  0.73858465  0.21360855    -0.40700
H1535       H  0.28954759  0.73273686  0.15027455     0.12100
H1536       H  0.28932808  0.73329168  0.09016310     0.11700
H1537       H  0.20922797  0.74324085  0.09055807     0.11200
H1538       H  0.20941306  0.74257422  0.15063837     0.11400
H1539       H  0.22880159  0.73869657  0.03790171     0.14100
H1540       H  0.28616658  0.73981605  0.03677316     0.12900
H1541       H  0.26992937  0.73593187  0.20298109     0.10600
H1542       H  0.21269475  0.73979901  0.20445174     0.12600
C1543       C  0.14538082  0.62622987  0.32443976     0.18700
C1544       C  0.12950085  0.61531019  0.34769049    -0.19400
C1545       C  0.11147678  0.59814189  0.33756378    -0.11700
C1546       C  0.10943353  0.59123442  0.30399623     0.20900
C1547       C  0.12582911  0.60165478  0.28091064    -0.21000
C1548       C  0.14347897  0.61922013  0.29093690    -0.11900
C1549       C  0.09115675  0.57249052  0.29249391    -0.16000
C1550       C  0.06865577  0.56935502  0.30660648    -0.29900
C1551       C  0.16443706  0.64415808  0.33586844    -0.04100
C1552       C  0.16988820  0.66465139  0.31869996    -0.40700
H1553       H  0.13093716  0.62023626  0.37369952     0.12100
H1554       H  0.09959816  0.58990246  0.35611354     0.11700
H1555       H  0.12484273  0.59630941  0.25501099     0.11200
H1556       H  0.15596175  0.62693014  0.27265146     0.11400
H1557       H  0.09595458  0.56172757  0.27060483     0.14100
H1558       H  0.06286001  0.58127043  0.32689868     0.12900
H1559       H  0.17318143  0.64108717  0.35987513     0.10600
H1560       H  0.15961124  0.66879247  0.29609697     0.12600
C1561       C  0.38696678  0.60166271  0.46129405     0.18700
C1562       C  0.36134581  0.59822006  0.46699645    -0.19400
C1563       C  0.34431560  0.61745413  0.46195668    -0.11700
C1564       C  0.35257648  0.64068525  0.45102269     0.20900
C1565       C  0.37821666  0.64432129  0.44602018    -0.21000
C1566       C  0.39524788  0.62510137  0.45100409    -0.11900
C1567       C  0.33512599  0.66149696  0.44437667    -0.16000
C1568       C  0.31126527  0.65807543  0.43476707    -0.29900
C1569       C  0.40431657  0.58068696  0.46781559    -0.04100
C1570       C  0.42837687  0.58014056  0.45823589    -0.40700
H1571       H  0.35444679  0.58054448  0.47545703     0.12100
H1572       H  0.32479497  0.61411213  0.46707475     0.11700
H1573       H  0.38510356  0.66209479  0.43791503     0.11200
H1574       H  0.41480062  0.62902941  0.44723827     0.11400
H1575       H  0.34280197  0.68007596  0.44438094     0.14100
H1576       H  0.30391230  0.63947738  0.43227228     0.12900
H1577       H  0.39691543  0.56503218  0.48137021     0.10600
H1578       H  0.43623275  0.59517361  0.44407189     0.12600
C1579       C  0.38650646  0.89632604  0.42610302     0.18700
C1580       C  0.39043263  0.87109291  0.43193539    -0.19400
C1581       C  0.37117273  0.85397410  0.42708845    -0.11700
C1582       C  0.34745546  0.86176583  0.41610640     0.20900
C1583       C  0.34364887  0.88697204  0.40985912    -0.21000
C1584       C  0.36288703  0.90409799  0.41481058    -0.11900
C1585       C  0.32673438  0.84417534  0.40883483    -0.16000
C1586       C  0.32544330  0.82107694  0.42101088    -0.29900
C1587       C  0.40755204  0.91378276  0.43188988    -0.04100
C1588       C  0.40435741  0.93790554  0.43894245    -0.40700
H1589       H  0.40850721  0.86457987  0.44035490     0.12100
H1590       H  0.37523563  0.83468261  0.43121304     0.11700
H1591       H  0.32571193  0.89344440  0.40089044     0.11200
H1592       H  0.35925881  0.92325575  0.40911324     0.11400
H1593       H  0.31189230  0.85061578  0.39255621     0.14100
H1594       H  0.33955647  0.81448128  0.43818897     0.12900
H1595       H  0.42626552  0.90603101  0.43305706     0.10600
H1596       H  0.38570404  0.94566873  0.44018467     0.12600
C1597       C  0.15179027  0.36864331  0.67261476     0.18700
C1598       C  0.15262176  0.39419461  0.66716580    -0.19400
C1599       C  0.13122415  0.40871679  0.67114267    -0.11700
C1600       C  0.10841445  0.39792949  0.68058325     0.20900
C1601       C  0.10736181  0.37228934  0.68492034    -0.21000
C1602       C  0.12878753  0.35777518  0.68108840    -0.11900
C1603       C  0.08556448  0.41294150  0.68639692    -0.16000
C1604       C  0.08684367  0.43622852  0.69791524    -0.29900
C1605       C  0.17473008  0.35368342  0.66696810    -0.04100
C1606       C  0.17847969  0.33132611  0.68061027    -0.40700
H1607       H  0.16991158  0.40296524  0.65983772     0.12100
H1608       H  0.13256673  0.42831748  0.66640829     0.11700
H1609       H  0.08995799  0.36348496  0.69168623     0.11200
H1610       H  0.12705845  0.33802680  0.68412058     0.11400
H1611       H  0.06744536  0.40404755  0.68388523     0.14100
H1612       H  0.10496919  0.44441033  0.70310762     0.12900
H1613       H  0.18874955  0.36117692  0.65041279     0.10600
H1614       H  0.16507837  0.32403276  0.69812485     0.12600
C1615       C  0.38205561  0.40699753  0.54784696     0.18700
C1616       C  0.36837643  0.39461138  0.52303744    -0.19400
C1617       C  0.35054606  0.37676179  0.53132752    -0.11700
C1618       C  0.34577719  0.37124527  0.56474205     0.20900
C1619       C  0.35908878  0.38399751  0.58954017    -0.21000
C1620       C  0.37714951  0.40155252  0.58125648    -0.11900
C1621       C  0.32623848  0.35331767  0.57478060    -0.16000
C1622       C  0.31947015  0.33348099  0.55651040    -0.29900
C1623       C  0.40064294  0.42607068  0.53821427    -0.04100
C1624       C  0.42131917  0.43093210  0.55625443    -0.40700
H1625       H  0.37156766  0.39870925  0.49714046     0.12100
H1626       H  0.34012953  0.36778784  0.51161225     0.11700
H1627       H  0.35549534  0.38034796  0.61547282     0.11200
H1628       H  0.38678663  0.41123395  0.60106821     0.11400
H1629       H  0.31802421  0.35588289  0.59916111     0.14100
H1630       H  0.32888963  0.32943520  0.53332742     0.12900
H1631       H  0.39793465  0.43539882  0.51467214     0.10600
H1632       H  0.42526813  0.42020112  0.57833579     0.12600
C1633       C  0.38067710  0.11119456  0.52388885     0.18700
C1634       C  0.35592381  0.11022446  0.51215623    -0.19400
C1635       C  0.34017824  0.13079576  0.51467583    -0.11700
C1636       C  0.34889352  0.15296680  0.52892787     0.20900
C1637       C  0.37400397  0.15439853  0.53896269    -0.21000
C1638       C  0.38972999  0.13377857  0.53661511    -0.11900
C1639       C  0.33213340  0.17446475  0.53522484    -0.16000
C1640       C  0.30775120  0.17169713  0.54236204    -0.29900
C1641       C  0.39648497  0.08853074  0.52123425    -0.04100
C1642       C  0.41807421  0.08491337  0.53802273    -0.40700
H1643       H  0.34858592  0.09332320  0.50142602     0.12100
H1644       H  0.32119350  0.12922402  0.50557242     0.11700
H1645       H  0.38131680  0.17136008  0.54954906     0.11200
H1646       H  0.40890657  0.13575967  0.54468607     0.11400
H1647       H  0.34068237  0.19251621  0.53860576     0.14100
H1648       H  0.29956337  0.15335868  0.54211353     0.12900
H1649       H  0.38991346  0.07407834  0.50455070     0.10600
H1650       H  0.42490827  0.09879172  0.55528400     0.12600
C1651       C  0.25353096  0.25297972  0.83492112     0.18700
C1652       C  0.23699584  0.24002460  0.85528358    -0.19400
C1653       C  0.24053082  0.23965216  0.88962638    -0.11700
C1654       C  0.26047943  0.25269005  0.90445180     0.20900
C1655       C  0.27716284  0.26545828  0.88406704    -0.21000
C1656       C  0.27364373  0.26580397  0.84967096    -0.11900
C1657       C  0.26406774  0.25341102  0.94104234    -0.16000
C1658       C  0.24454970  0.25236537  0.96179062    -0.29900
C1659       C  0.24909211  0.25304689  0.79853612    -0.04100
C1660       C  0.26775525  0.25527188  0.77659183    -0.40700
H1661       H  0.22145180  0.22991235  0.84454180     0.12100
H1662       H  0.22772985  0.22892868  0.90442468     0.11700
H1663       H  0.29262594  0.27565739  0.89485026     0.11200
H1664       H  0.28640349  0.27654888  0.83484860     0.11400
H1665       H  0.28279420  0.25608431  0.95094665     0.14100
H1666       H  0.22574927  0.25141805  0.95162882     0.12900
H1667       H  0.23014414  0.24999897  0.78960456     0.10600
H1668       H  0.28691757  0.25665102  0.78534279     0.12600
C1669       C  0.24055476  0.25624447  0.33514866     0.18700
C1670       C  0.22276893  0.26713726  0.35603350    -0.19400
C1671       C  0.22607232  0.26694874  0.39049992    -0.11700
C1672       C  0.24714248  0.25548913  0.40477465     0.20900
C1673       C  0.26488889  0.24461109  0.38388340    -0.21000
C1674       C  0.26155488  0.24472774  0.34951286    -0.11900
C1675       C  0.25148480  0.25493747  0.44118839    -0.16000
C1676       C  0.23276715  0.25531892  0.46325874    -0.29900
C1677       C  0.23681976  0.25699888  0.29856366    -0.04100
C1678       C  0.25627641  0.25744628  0.27766154    -0.40700
H1679       H  0.20649951  0.27618165  0.34561981     0.12100
H1680       H  0.21233812  0.27617213  0.40576399     0.11700
H1681       H  0.28123308  0.23565000  0.39423468     0.11200
H1682       H  0.27530999  0.23543783  0.33435443     0.11400
H1683       H  0.27062506  0.25325079  0.44999980     0.14100
H1684       H  0.21353136  0.25564133  0.45461072     0.12900
H1685       H  0.21789970  0.25809482  0.28880272     0.10600
H1686       H  0.27513530  0.25784327  0.28768163     0.12600
C1687       C  0.11417206  0.39725296  0.21801545     0.18700
C1688       C  0.14003062  0.40094792  0.22087303    -0.19400
C1689       C  0.15672152  0.38158404  0.21479094    -0.11700
C1690       C  0.14785024  0.35798497  0.20587869     0.20900
C1691       C  0.12198112  0.35390820  0.20492546    -0.21000
C1692       C  0.10528522  0.37329856  0.21087091    -0.11900
C1693       C  0.16502485  0.33741949  0.19701131    -0.16000
C1694       C  0.18742019  0.34134479  0.18294298    -0.29900
C1695       C  0.09704080  0.41863379  0.22297440    -0.04100
C1696       C  0.07418138  0.41973712  0.20898226    -0.40700
H1697       H  0.14737304  0.41901970  0.22716668     0.12100
H1698       H  0.17653294  0.38518148  0.21711453     0.11700
H1699       H  0.11465453  0.33578900  0.19881697     0.11200
H1700       H  0.08548284  0.36937845  0.20995065     0.11400
H1701       H  0.15821975  0.31861852  0.19955809     0.14100
H1702       H  0.19351439  0.36008042  0.17801237     0.12900
H1703       H  0.10372804  0.43416470  0.23770743     0.10600
H1704       H  0.06774603  0.40470851  0.19323248     0.12600
C1705       C  0.40031346  0.38431758  0.03166037     0.18700
C1706       C  0.37644364  0.38480469  0.01708851    -0.19400
C1707       C  0.35937847  0.36578829  0.02260978    -0.11700
C1708       C  0.36589305  0.34563749  0.04263167     0.20900
C1709       C  0.39022261  0.34426796  0.05559850    -0.21000
C1710       C  0.40728210  0.36350532  0.05041967    -0.11900
C1711       C  0.34723351  0.32644503  0.05118180    -0.16000
C1712       C  0.32356906  0.33257269  0.05878232    -0.29900
C1713       C  0.41687768  0.40606427  0.02660897    -0.04100
C1714       C  0.43751492  0.41118554  0.04466069    -0.40700
H1715       H  0.37070349  0.40031528  0.00200276     0.12100
H1716       H  0.34097118  0.36697209  0.01147918     0.11700
H1717       H  0.39574440  0.32869501  0.07070407     0.11200
H1718       H  0.42571492  0.36193382  0.06124345     0.11400
H1719       H  0.35350255  0.30749819  0.05414656     0.14100
H1720       H  0.31812500  0.35190676  0.05870988     0.12900
H1721       H  0.41111195  0.41914687  0.00770643     0.10600
H1722       H  0.44389865  0.39868426  0.06381476     0.12600
C1723       C  0.34628407  0.13652381  0.07859226     0.18700
C1724       C  0.34517257  0.11175801  0.08849630    -0.19400
C1725       C  0.36613696  0.09646836  0.08596718    -0.11700
C1726       C  0.38882094  0.10568216  0.07358138     0.20900
C1727       C  0.39031171  0.13073170  0.06514336    -0.21000
C1728       C  0.36926375  0.14600683  0.06745132    -0.11900
C1729       C  0.41078755  0.08937824  0.06793082    -0.16000
C1730       C  0.40794238  0.06571573  0.05843714    -0.29900
C1731       C  0.32366994  0.15228743  0.08246053    -0.04100
C1732       C  0.31960311  0.17300559  0.06487931    -0.40700
H1733       H  0.32793372  0.10414541  0.09799703     0.12100
H1734       H  0.36453167  0.07745682  0.09380641     0.11700
H1735       H  0.40765990  0.13837175  0.05602558     0.11200
H1736       H  0.37120638  0.16525972  0.06096218     0.11400
H1737       H  0.42931138  0.09759659  0.06779353     0.14100
H1738       H  0.38924664  0.05819421  0.05555147     0.12900
H1739       H  0.31021796  0.14691295  0.10119114     0.10600
H1740       H  0.33260712  0.17830824  0.04562074     0.12600
C1741       C  0.90089678  0.10490856  0.68120359     0.18700
C1742       C  0.90254028  0.12988479  0.69029585    -0.19400
C1743       C  0.88232113  0.14584630  0.68531615    -0.11700
C1744       C  0.86001906  0.13713294  0.67066395     0.20900
C1745       C  0.85870587  0.11222052  0.66088495    -0.21000
C1746       C  0.87886380  0.09627938  0.66601734    -0.11900
C1747       C  0.83792667  0.15317322  0.66402201    -0.16000
C1748       C  0.83560926  0.17690301  0.67388038    -0.29900
C1749       C  0.92240572  0.08836996  0.68803286    -0.04100
C1750       C  0.91956296  0.06427339  0.69502948    -0.40700
H1751       H  0.91942661  0.13699845  0.70177461     0.12100
H1752       H  0.88454018  0.16488534  0.69280580     0.11700
H1753       H  0.84197081  0.10501373  0.64912478     0.11200
H1754       H  0.87721124  0.07730788  0.65774026     0.11400
H1755       H  0.82272087  0.14489518  0.64988358     0.14100
H1756       H  0.85016141  0.18585100  0.68829785     0.12900
H1757       H  0.94083862  0.09668095  0.68996762     0.10600
H1758       H  0.90099353  0.05622226  0.69554286     0.12600
C1759       C  0.85250599  0.86599036  0.81546231     0.18700
C1760       C  0.86945180  0.87534470  0.83904021    -0.19400
C1761       C  0.88858340  0.89148242  0.82964607    -0.11700
C1762       C  0.89090420  0.89894709  0.79642014     0.20900
C1763       C  0.87372101  0.88977169  0.77292945    -0.21000
C1764       C  0.85485189  0.87332503  0.78224615    -0.11900
C1765       C  0.90978498  0.91748824  0.78574819    -0.16000
C1766       C  0.93133009  0.92227017  0.80215318    -0.29900
C1767       C  0.83196246  0.84946141  0.82634533    -0.04100
C1768       C  0.82367568  0.83039773  0.80777982    -0.40700
H1769       H  0.86786205  0.87014981  0.86484607     0.12100
H1770       H  0.90095780  0.89863142  0.84866924     0.11700
H1771       H  0.87480431  0.89547685  0.74726847     0.11200
H1772       H  0.84170941  0.86688764  0.76362972     0.11400
H1773       H  0.90586884  0.92739012  0.76292503     0.14100
H1774       H  0.93650776  0.91146585  0.82369198     0.12900
H1775       H  0.82460277  0.85203648  0.85120294     0.10600
H1776       H  0.83273227  0.82616556  0.78438189     0.12600
C1777       C  0.15371195  0.86602667  0.83055319     0.18700
C1778       C  0.15785134  0.89128203  0.83646497    -0.19400
C1779       C  0.13838968  0.90839573  0.83341063    -0.11700
C1780       C  0.11420860  0.90058979  0.82430376     0.20900
C1781       C  0.10998780  0.87529685  0.81895317    -0.21000
C1782       C  0.12942004  0.85819618  0.82204389    -0.11900
C1783       C  0.09287956  0.91800135  0.82008083    -0.16000
C1784       C  0.09559635  0.94236093  0.81449832    -0.29900
C1785       C  0.17477502  0.84841647  0.83557555    -0.04100
C1786       C  0.17482385  0.82490308  0.82436163    -0.40700
H1787       H  0.17623116  0.89781302  0.84367413     0.12100
H1788       H  0.14239225  0.92756860  0.83876026     0.11700
H1789       H  0.09152247  0.86869610  0.81227407     0.11200
H1790       H  0.12504154  0.83889471  0.81842437     0.11400
H1791       H  0.07424915  0.91005470  0.81875249     0.14100
H1792       H  0.11408402  0.95046926  0.81334370     0.12900
H1793       H  0.19083262  0.85510203  0.84956992     0.10600
H1794       H  0.15948042  0.81799028  0.80934008     0.12600
C1795       C  0.15112756  0.15447692  0.71201575     0.18700
C1796       C  0.12560444  0.15637790  0.70430997    -0.19400
C1797       C  0.10950198  0.13633457  0.70924359    -0.11700
C1798       C  0.11864069  0.11403525  0.72243507     0.20900
C1799       C  0.14393621  0.11264574  0.73160339    -0.21000
C1800       C  0.16005192  0.13254679  0.72631949    -0.11900
C1801       C  0.10243417  0.09209215  0.72808182    -0.16000
C1802       C  0.08096463  0.08757603  0.71148685    -0.29900
C1803       C  0.16813201  0.17524822  0.70380958    -0.04100
C1804       C  0.19151099  0.17130801  0.69288840    -0.40700
H1805       H  0.11823006  0.17321075  0.69366292     0.12100
H1806       H  0.08996256  0.13850119  0.70298262     0.11700
H1807       H  0.15136969  0.09591199  0.74244783     0.11200
H1808       H  0.17948137  0.13072894  0.73345593     0.11400
H1809       H  0.10883251  0.07877600  0.74631578     0.14100
H1810       H  0.07444092  0.10034671  0.69270282     0.12900
H1811       H  0.16039057  0.19378943  0.70294741     0.10600
H1812       H  0.19846104  0.15252535  0.69075799     0.12600
C1813       C  0.00970893  0.00451909  0.46727849     0.18700
C1814       C  0.01578804  0.02541280  0.48645752    -0.19400
C1815       C  0.01637993  0.02421115  0.52107781    -0.11700
C1816       C  0.01059784  0.00201536  0.53731499     0.20900
C1817       C  0.00438343  0.98118735  0.51811802    -0.21000
C1818       C  0.00377641  0.98239315  0.48354269    -0.11900
C1819       C  0.01135717  0.99936536  0.57396883    -0.16000
C1820       C  0.01163648  0.01834728  0.59572925    -0.29900
C1821       C  0.00918789  0.00689061  0.43058907    -0.04100
C1822       C  0.00945899  0.98765445  0.40918511    -0.40700
H1823       H  0.02036250  0.04272119  0.47457839     0.12100
H1824       H  0.02176633  0.04059365  0.53474264     0.11700
H1825       H  0.99977709  0.96387300  0.52995552     0.11200
H1826       H  0.99828512  0.96602726  0.46992125     0.11400
H1827       H  0.01096460  0.98063294  0.58350373     0.14100
H1828       H  0.01087215  0.03728057  0.58721324     0.12900
H1829       H  0.00897238  0.02554766  0.42078220     0.10600
H1830       H  0.01037967  0.96882873  0.41807726     0.12600
C1831       C  0.00672576  0.00189638  0.03697275     0.18700
C1832       C  0.01502316  0.98191383  0.01761639    -0.19400
C1833       C  0.01450569  0.98299305  0.98298292    -0.11700
C1834       C  0.00531461  0.00409621  0.96681938     0.20900
C1835       C  0.99733430  0.02423512  0.98617522    -0.21000
C1836       C  0.99788410  0.02316656  0.02083847    -0.11900
C1837       C  0.00419776  0.00624046  0.93004845    -0.16000
C1838       C  0.00564944  0.98704201  0.90861462    -0.29900
C1839       C  0.00672623  0.99920389  0.07368437    -0.04100
C1840       C  0.00548753  0.01815214  0.09545711    -0.40700
H1841       H  0.02202141  0.96534109  0.02937790     0.12100
H1842       H  0.02155001  0.96733512  0.96919931     0.11700
H1843       H  0.99027925  0.04078498  0.97440835     0.11200
H1844       H  0.99084238  0.03880502  0.03468701     0.11400
H1845       H  0.00156340  0.02470560  0.92020176     0.14100
H1846       H  0.00751289  0.96829378  0.91756552     0.12900
H1847       H  0.00842489  0.98054125  0.08321659     0.10600
H1848       H  0.00497025  0.03706856  0.08679722     0.12600
C1849       C  0.86207257  0.13815690  0.15774325     0.18700
C1850       C  0.86232112  0.11284221  0.15053418    -0.19400
C1851       C  0.88366294  0.09872747  0.15648998    -0.11700
C1852       C  0.90538395  0.10965194  0.16977489     0.20900
C1853       C  0.90570550  0.13525879  0.17525417    -0.21000
C1854       C  0.88417876  0.14942067  0.16953033    -0.11900
C1855       C  0.92725391  0.09432273  0.17947155    -0.16000
C1856       C  0.92386371  0.07188140  0.19279630    -0.29900
C1857       C  0.83866882  0.15220370  0.15149919    -0.04100
C1858       C  0.83232556  0.17254446  0.16871227    -0.40700
H1859       H  0.84575371  0.10384020  0.14078528     0.12100
H1860       H  0.88306668  0.07917252  0.15085796     0.11700
H1861       H  0.92235428  0.14416203  0.18493170     0.11200
H1862       H  0.88495385  0.16910602  0.17415114     0.11400
H1863       H  0.94589438  0.10219143  0.17821057     0.14100
H1864       H  0.90494193  0.06518750  0.19645452     0.12900
H1865       H  0.82595847  0.14515240  0.13260870     0.10600
H1866       H  0.84454183  0.17927707  0.18834414     0.12600
C1867       C  0.90075835  0.90232691  0.33969137     0.18700
C1868       C  0.90345641  0.87662908  0.33795056    -0.19400
C1869       C  0.88305187  0.86110291  0.34340399    -0.11700
C1870       C  0.85937171  0.87099294  0.35082061     0.20900
C1871       C  0.85699568  0.89668077  0.35440790    -0.21000
C1872       C  0.87742308  0.91224452  0.34876443    -0.11900
C1873       C  0.83694240  0.85505228  0.35509645    -0.16000
C1874       C  0.83484103  0.83262564  0.34077624    -0.29900
C1875       C  0.92248304  0.91812380  0.33108166    -0.04100
C1876       C  0.91966477  0.94012542  0.31633266    -0.40700
H1877       H  0.92131117  0.86853030  0.33155815     0.12100
H1878       H  0.88602885  0.84138689  0.34189244     0.11700
H1879       H  0.83914622  0.90476219  0.36087221     0.11200
H1880       H  0.87487719  0.93197336  0.35147830     0.11400
H1881       H  0.82143548  0.86232169  0.36944524     0.14100
H1882       H  0.84979770  0.82560819  0.32531325     0.12900
H1883       H  0.94111992  0.91042662  0.33383665     0.10600
H1884       H  0.90098102  0.94705470  0.31138293     0.12600
C1885       C  0.12336074  0.90251830  0.30101831     0.18700
C1886       C  0.13535297  0.88921272  0.27571113    -0.19400
C1887       C  0.15264959  0.87069165  0.28330842    -0.11700
C1888       C  0.15862691  0.86541415  0.31649458     0.20900
C1889       C  0.14697906  0.87903091  0.34181032    -0.21000
C1890       C  0.12932157  0.89724555  0.33422108    -0.11900
C1891       C  0.17754488  0.84651165  0.32550875    -0.16000
C1892       C  0.18143420  0.82577528  0.30767214    -0.29900
C1893       C  0.10563591  0.92246577  0.29181509    -0.04100
C1894       C  0.08552535  0.92860555  0.31003678    -0.40700
H1895       H  0.13127003  0.89314425  0.24993737     0.12100
H1896       H  0.16174283  0.86096994  0.26319638     0.11700
H1897       H  0.15150161  0.87548624  0.36756262     0.11200
H1898       H  0.12086116  0.90757249  0.35428616     0.11400
H1899       H  0.18735934  0.84888087  0.34898417     0.14100
H1900       H  0.17005043  0.82186970  0.28591521     0.12900
H1901       H  0.10833075  0.93129393  0.26794919     0.10600
H1902       H  0.08128701  0.91843934  0.33245831     0.12600
C1903       C  0.11111158  0.10874625  0.18491700     0.18700
C1904       C  0.11036032  0.13302447  0.19729654    -0.19400
C1905       C  0.13089006  0.14887305  0.19374294    -0.11700
C1906       C  0.15260513  0.14079797  0.17729184     0.20900
C1907       C  0.15308992  0.11664047  0.16444680    -0.21000
C1908       C  0.13267423  0.10079555  0.16819623    -0.11900
C1909       C  0.17435108  0.15725632  0.17054654    -0.16000
C1910       C  0.17849811  0.17932624  0.18527366    -0.29900
C1911       C  0.08927162  0.09211902  0.18997507    -0.04100
C1912       C  0.09183050  0.06756727  0.19404355    -0.40700
H1913       H  0.09389004  0.13969140  0.21002341     0.12100
H1914       H  0.12930941  0.16749362  0.20325086     0.11700
H1915       H  0.16931814  0.11001619  0.15114382     0.11200
H1916       H  0.13369653  0.08247021  0.15747280     0.11400
H1917       H  0.18719231  0.15113762  0.15139144     0.14100
H1918       H  0.16623053  0.18595117  0.20468667     0.12900
H1919       H  0.07103698  0.10051475  0.19359173     0.10600
H1920       H  0.11035460  0.05941736  0.19347272     0.12600
loop_ 
_geom_bond_atom_site_label_1 
_geom_bond_atom_site_label_2 
_geom_bond_distance 
_geom_bond_site_symmetry_2 
_ccdc_geom_bond_type 
Zr1           O2   2.439       .  S
Zr1           O3   2.434       .  S
Zr1           O4   2.452       .  S
Zr1           O7   2.453   1_455  S
Zr1           O9   2.390       .  S
Zr1          O10   2.384   1_455  S
Zr1          O11   2.407       .  S
Zr1          O12   2.402   1_455  S
O2           H58   0.990       .  S
O2           H66   0.990       .  S
O3           C23   1.284       .  A
O4           C25   1.288       .  A
O5          Zr15   2.409       .  S
O5           C24   1.280       .  A
O6          Zr14   2.430   1_545  S
O6           C25   1.284       .  A
O7           C24   1.288       .  A
O8          Zr16   2.428       .  S
O8           C23   1.284   1_565  A
O9          Zr14   2.393   1_545  S
O9          Zr16   2.378   1_545  S
O10         Zr15   2.386       .  S
O10         Zr16   2.368   1_645  S
O10          H45   0.965       .  S
O11         Zr14   2.400   1_545  S
O11         Zr31   2.390       .  S
O11          H48   0.965       .  S
O12         Zr15   2.392       .  S
O12         Zr31   2.396   1_655  S
Zr13         O38   2.444       .  S
Zr13         O32   2.438       .  S
Zr13         O40   2.455   1_455  S
Zr13         O28   2.441       .  S
Zr13         O19   2.404   1_455  S
Zr13         O20   2.412       .  S
Zr13         O21   2.381       .  S
Zr13         O22   2.381   1_465  S
Zr14         O33   2.435   1_565  S
Zr14         O26   2.436       .  S
Zr14         O27   2.434       .  S
Zr14         O20   2.396       .  S
Zr14         O21   2.388       .  S
Zr15         O17   2.435       .  S
Zr15         O39   2.438   1_545  S
Zr15         O41   2.412   1_545  S
Zr15         O19   2.387   1_545  S
Zr15         O22   2.385       .  S
Zr16         O42   2.436   1_455  S
Zr16         O43   2.436   1_455  S
Zr16         O18   2.436       .  S
Zr16         O19   2.399   1_455  S
Zr16         O20   2.396       .  S
O17          H54   0.990       .  S
O18          H49   0.990       .  S
O18          H63   0.990       .  S
O20          H46   0.964       .  S
O21         Zr31   2.377   1_565  S
O22         Zr31   2.375   1_655  S
O22          H47   0.965   1_545  S
C23        C1840   1.482       .  S
C24        C1856   1.474       .  S
C25        C1912   1.480       .  S
O26          H62   0.990       .  S
O27          C29   1.286       .  A
O28          C29   1.285       .  A
C29        C1894   1.480       .  S
O30         Zr31   2.438       .  S
O30          H59   0.991       .  S
Zr31         O34   2.438       .  S
Zr31         O35   2.439   1_455  S
Zr31         O36   2.416       .  S
O32          C37   1.285       .  A
O33          H50   0.990       .  S
O33          H65   0.990       .  S
O34          H51   0.990       .  S
O35          H55   0.990       .  S
O35          H64   0.990       .  S
O36          C37   1.282   1_545  A
C37        C1822   1.478       .  S
O38          H57   0.990   1_455  S
O38          H61   0.990       .  S
O39          H53   0.990       .  S
O39          H60   0.990       .  S
O40          C44   1.289       .  A
O41          C44   1.280       .  A
O42          H52   0.990       .  S
O43          H56   0.990       .  S
C44        C1876   1.478       .  S
Zr67         O68   2.441   1_455  S
Zr67         O69   2.437       .  S
Zr67         O70   2.451       .  S
Zr67         O73   2.437   1_455  S
Zr67         O75   2.384       .  S
Zr67         O76   2.389   1_455  S
Zr67         O77   2.407       .  S
Zr67         O78   2.401   1_455  S
O68         H124   0.990   1_655  S
O68         H132   0.990   1_655  S
O69          C89   1.283       .  A
O70          C91   1.286       .  A
O71         Zr81   2.421   1_545  S
O71          C90   1.282       .  A
O72         Zr80   2.435       .  S
O72          C91   1.285       .  A
O73          C90   1.286       .  A
O74         Zr82   2.417       .  S
O74          C89   1.282   1_565  A
O75         Zr80   2.399       .  S
O75         Zr82   2.385   1_545  S
O76         Zr81   2.386   1_545  S
O76         Zr82   2.375   1_645  S
O76         H111   0.965       .  S
O77         Zr80   2.399       .  S
O77         Zr97   2.390   1_455  S
O77         H114   0.966       .  S
O78         Zr81   2.392   1_545  S
O78         Zr97   2.389       .  S
Zr79        O104   2.448       .  S
Zr79         O98   2.442       .  S
Zr79        O106   2.454   1_455  S
Zr79         O94   2.443       .  S
Zr79         O85   2.406   1_455  S
Zr79         O86   2.409       .  S
Zr79         O87   2.386   1_565  S
Zr79         O88   2.383   1_455  S
Zr80         O99   2.437       .  S
Zr80         O92   2.435   1_545  S
Zr80         O93   2.433   1_545  S
Zr80         O86   2.397   1_545  S
Zr80         O87   2.389       .  S
Zr81         O83   2.435   1_565  S
Zr81        O105   2.437       .  S
Zr81        O107   2.424       .  S
Zr81         O85   2.387       .  S
Zr81         O88   2.390       .  S
Zr82        O108   2.435   1_455  S
Zr82        O109   2.436       .  S
Zr82         O84   2.436       .  S
Zr82         O85   2.398   1_455  S
Zr82         O86   2.386       .  S
O83         H120   0.990   1_545  S
O84         H115   0.990       .  S
O84         H129   0.990       .  S
O86         H112   0.964       .  S
O87         Zr97   2.377   1_455  S
O88         Zr97   2.376   1_565  S
O88         H113   0.966       .  S
C89        C1820   1.478       .  S
C90        C1750   1.476       .  S
C91        C1802   1.484       .  S
O92         H128   0.990       .  S
O93          C95   1.285       .  A
O94          C95   1.287       .  A
C95        C1784   1.479       .  S
O96         Zr97   2.439       .  S
O96         H125   0.990       .  S
Zr97        O100   2.438   1_655  S
Zr97        O101   2.438       .  S
Zr97        O102   2.419   1_655  S
O98         C103   1.286       .  A
O99         H116   0.990       .  S
O99         H131   0.990       .  S
O100        H117   0.990       .  S
O101        H121   0.990       .  S
O101        H130   0.990       .  S
O102        C103   1.283   1_545  A
C103       C1838   1.482       .  S
O104        H123   0.990       .  S
O104        H127   0.991       .  S
O105        H119   0.990       .  S
O105        H126   0.990       .  S
O106        C110   1.288       .  A
O107        C110   1.283       .  A
O108        H118   0.990       .  S
O109        H122   0.990       .  S
C110       C1766   1.484       .  S
Zr133       O134   2.442       .  S
Zr133       O135   2.451       .  S
Zr133       O136   2.452       .  S
Zr133       O139   2.449       .  S
Zr133       O141   2.386       .  S
Zr133       O142   2.387       .  S
Zr133       O143   2.414       .  S
Zr133       O144   2.403       .  S
O134        H190   0.990       .  S
O134        H198   0.991       .  S
O135        C155   1.286   1_554  A
O136        C157   1.285       .  A
O137       Zr147   2.423       .  S
O137        C156   1.282       .  A
O138       Zr146   2.438       .  S
O138        C157   1.286       .  A
O139        C156   1.287       .  A
O140       Zr148   2.405       .  S
O140        C155   1.277   1_554  A
O141       Zr146   2.401       .  S
O141       Zr148   2.384       .  S
O142       Zr147   2.392       .  S
O142       Zr148   2.379       .  S
O142        H177   0.964       .  S
O143       Zr146   2.405       .  S
O143       Zr163   2.383       .  S
O143        H180   0.964       .  S
O144       Zr147   2.385       .  S
O144       Zr163   2.386       .  S
Zr145       O170   2.441       .  S
Zr145       O164   2.452       .  S
Zr145       O172   2.442       .  S
Zr145       O160   2.454       .  S
Zr145       O151   2.408       .  S
Zr145       O152   2.410       .  S
Zr145       O153   2.381       .  S
Zr145       O154   2.385       .  S
Zr146       O165   2.436       .  S
Zr146       O158   2.437       .  S
Zr146       O159   2.433       .  S
Zr146       O152   2.404       .  S
Zr146       O153   2.398       .  S
Zr147       O149   2.436       .  S
Zr147       O171   2.436       .  S
Zr147       O173   2.422       .  S
Zr147       O151   2.389       .  S
Zr147       O154   2.393       .  S
Zr148       O174   2.438       .  S
Zr148       O175   2.435       .  S
Zr148       O150   2.440       .  S
Zr148       O151   2.392       .  S
Zr148       O152   2.388       .  S
O149        H186   0.990       .  S
O150        H181   0.990       .  S
O150        H195   0.990       .  S
O152        H178   0.965       .  S
O153       Zr163   2.382       .  S
O154       Zr163   2.374       .  S
O154        H179   0.967       .  S
C155       C1658   1.475       .  S
C156       C1712   1.477       .  S
C157       C1732   1.481       .  S
O158        H194   0.990       .  S
O159        C161   1.286       .  A
O160        C161   1.286       .  A
C161       C1910   1.484       .  S
O162       Zr163   2.438       .  S
O162        H191   0.990       .  S
Zr163       O166   2.437       .  S
Zr163       O167   2.439       .  S
Zr163       O168   2.405       .  S
O164        C169   1.287       .  A
O165        H182   0.990       .  S
O165        H197   0.990       .  S
O166        H183   0.990       .  S
O167        H187   0.990       .  S
O167        H196   0.990       .  S
O168        C169   1.278       .  A
C169       C1678   1.475       .  S
O170        H189   0.990       .  S
O170        H193   0.990       .  S
O171        H185   0.990       .  S
O171        H192   0.990       .  S
O172        C176   1.287       .  A
O173        C176   1.282       .  A
O174        H184   0.990       .  S
O175        H188   0.990       .  S
C176       C1694   1.477       .  S
Zr199       O200   2.440       .  S
Zr199       O201   2.448       .  S
Zr199       O202   2.460       .  S
Zr199       O205   2.447       .  S
Zr199       O207   2.380       .  S
Zr199       O208   2.388       .  S
Zr199       O209   2.411       .  S
Zr199       O210   2.403       .  S
O200        H256   0.990       .  S
O200        H264   0.991       .  S
O201        C221   1.286       .  A
O202        C223   1.288       .  A
O203       Zr213   2.426       .  S
O203        C222   1.284       .  A
O204       Zr212   2.418       .  S
O204        C223   1.281       .  A
O205        C222   1.286       .  A
O206       Zr214   2.408       .  S
O206        C221   1.278       .  A
O207       Zr212   2.395       .  S
O207       Zr214   2.378       .  S
O208       Zr213   2.399       .  S
O208       Zr214   2.380       .  S
O208        H243   0.963       .  S
O209       Zr212   2.398       .  S
O209       Zr229   2.395       .  S
O209        H246   0.964       .  S
O210       Zr213   2.392       .  S
O210       Zr229   2.389       .  S
Zr211       O236   2.443       .  S
Zr211       O230   2.446       .  S
Zr211       O238   2.442       .  S
Zr211       O226   2.457       .  S
Zr211       O217   2.399       .  S
Zr211       O218   2.411       .  S
Zr211       O219   2.375       .  S
Zr211       O220   2.389       .  S
Zr212       O231   2.437       .  S
Zr212       O224   2.434       .  S
Zr212       O225   2.413       .  S
Zr212       O218   2.399       .  S
Zr212       O219   2.391       .  S
Zr213       O215   2.437       .  S
Zr213       O237   2.440       .  S
Zr213       O239   2.436       .  S
Zr213       O217   2.387       .  S
Zr213       O220   2.396       .  S
Zr214       O240   2.435       .  S
Zr214       O241   2.435       .  S
Zr214       O216   2.435       .  S
Zr214       O217   2.383       .  S
Zr214       O218   2.396       .  S
O215        H252   0.990       .  S
O216        H247   0.990       .  S
O216        H261   0.990       .  S
O218        H244   0.966       .  S
O219       Zr229   2.377       .  S
O220       Zr229   2.386       .  S
O220        H245   0.968       .  S
C221       C1676   1.477       .  S
C222       C1622   1.481       .  S
C223       C1640   1.478       .  S
O224        H260   0.990       .  S
O225        C227   1.280       .  A
O226        C227   1.287       .  A
C227       C1804   1.476       .  S
O228       Zr229   2.438       .  S
O228        H257   0.990       .  S
Zr229       O232   2.438       .  S
Zr229       O233   2.439       .  S
Zr229       O234   2.411       .  S
O230        C235   1.286       .  A
O231        H248   0.990       .  S
O231        H263   0.990       .  S
O232        H249   0.990       .  S
O233        H253   0.990       .  S
O233        H262   0.990       .  S
O234        C235   1.279       .  A
C235       C1660   1.475       .  S
O236        H255   0.991       .  S
O236        H259   0.990       .  S
O237        H251   0.990       .  S
O237        H258   0.990       .  S
O238        C242   1.286       .  A
O239        C242   1.286       .  A
O240        H250   0.990       .  S
O241        H254   0.990       .  S
C242       C1606   1.479       .  S
Zr265       O266   2.438       .  S
Zr265       O267   2.442       .  S
Zr265       O268   2.444       .  S
Zr265       O271   2.431       .  S
Zr265       O273   2.378       .  S
Zr265       O274   2.381       .  S
Zr265       O275   2.408       .  S
Zr265       O276   2.406       .  S
O266        H322   0.990       .  S
O266        H330   0.990       .  S
O267        C287   1.285       .  A
O268        C289   1.286       .  A
O269       Zr279   2.429       .  S
O269        C288   1.285       .  A
O270       Zr278   2.433       .  S
O270        C289   1.285       .  A
O271        C288   1.284       .  A
O272       Zr280   2.420       .  S
O272        C287   1.282       .  A
O273       Zr278   2.391       .  S
O273       Zr280   2.378       .  S
O274       Zr279   2.388       .  S
O274       Zr280   2.373       .  S
O274        H309   0.966       .  S
O275       Zr278   2.394       .  S
O275       Zr295   2.390       .  S
O275        H312   0.965       .  S
O276       Zr279   2.385       .  S
O276       Zr295   2.395       .  S
Zr277       O302   2.450       .  S
Zr277       O296   2.439       .  S
Zr277       O304   2.450       .  S
Zr277       O292   2.444       .  S
Zr277       O283   2.402       .  S
Zr277       O284   2.406       .  S
Zr277       O285   2.382       .  S
Zr277       O286   2.385       .  S
Zr278       O297   2.436       .  S
Zr278       O290   2.436       .  S
Zr278       O291   2.428       .  S
Zr278       O284   2.399       .  S
Zr278       O285   2.388       .  S
Zr279       O281   2.436       .  S
Zr279       O303   2.435       .  S
Zr279       O305   2.421       .  S
Zr279       O283   2.393       .  S
Zr279       O286   2.389       .  S
Zr280       O306   2.438       .  S
Zr280       O307   2.435       .  S
Zr280       O282   2.436       .  S
Zr280       O283   2.396       .  S
Zr280       O284   2.392       .  S
O281        H318   0.990       .  S
O282        H313   0.990       .  S
O282        H327   0.990       .  S
O284        H310   0.966       .  S
O285       Zr295   2.375       .  S
O286       Zr295   2.375       .  S
O286        H311   0.965       .  S
C287       C1534   1.484       .  S
C288       C1552   1.475       .  S
C289       C1892   1.477       .  S
O290        H326   0.990       .  S
O291        C293   1.285       .  A
O292        C293   1.286       .  A
C293       C1586   1.481       .  S
O294       Zr295   2.438       .  S
O294        H323   0.990       .  S
Zr295       O298   2.437       .  S
Zr295       O299   2.438       .  S
Zr295       O300   2.423       .  S
O296        C301   1.285       .  A
O297        H314   0.990       .  S
O297        H329   0.990       .  S
O298        H315   0.990       .  S
O299        H319   0.990       .  S
O299        H328   0.990       .  S
O300        C301   1.284       .  A
C301       C1516   1.481       .  S
O302        H321   0.990       .  S
O302        H325   0.990       .  S
O303        H317   0.990       .  S
O303        H324   0.990       .  S
O304        C308   1.288       .  A
O305        C308   1.282       .  A
O306        H316   0.990       .  S
O307        H320   0.990       .  S
C308       C1568   1.479       .  S
Zr331       O332   2.442       .  S
Zr331       O333   2.436       .  S
Zr331       O334   2.450       .  S
Zr331       O337   2.443       .  S
Zr331       O339   2.381       .  S
Zr331       O340   2.390       .  S
Zr331       O341   2.407       .  S
Zr331       O342   2.400       .  S
O332        H388   0.990       .  S
O332        H396   0.990       .  S
O333        C353   1.283       .  A
O334        C355   1.285       .  A
O335       Zr345   2.420       .  S
O335        C354   1.283       .  A
O336       Zr344   2.423       .  S
O336        C355   1.283       .  A
O337        C354   1.287       .  A
O338       Zr346   2.418       .  S
O338        C353   1.281       .  A
O339       Zr344   2.397       .  S
O339       Zr346   2.379       .  S
O340       Zr345   2.395       .  S
O340       Zr346   2.376       .  S
O340        H375   0.964       .  S
O341       Zr344   2.403       .  S
O341       Zr361   2.390       .  S
O341        H378   0.965       .  S
O342       Zr345   2.396       .  S
O342       Zr361   2.386       .  S
Zr343       O368   2.446       .  S
Zr343       O362   2.439       .  S
Zr343       O370   2.422       .  S
Zr343       O358   2.424       .  S
Zr343       O349   2.402       .  S
Zr343       O350   2.405       .  S
Zr343       O351   2.378       .  S
Zr343       O352   2.379       .  S
Zr344       O363   2.436       .  S
Zr344       O356   2.435       .  S
Zr344       O357   2.436       .  S
Zr344       O350   2.394       .  S
Zr344       O351   2.387       .  S
Zr345       O347   2.435       .  S
Zr345       O369   2.439       .  S
Zr345       O371   2.438       .  S
Zr345       O349   2.381       .  S
Zr345       O352   2.386       .  S
Zr346       O372   2.436       .  S
Zr346       O373   2.435       .  S
Zr346       O348   2.437       .  S
Zr346       O349   2.397       .  S
Zr346       O350   2.391       .  S
O347        H384   0.990       .  S
O348        H379   0.990       .  S
O348        H393   0.990       .  S
O350        H376   0.965       .  S
O351       Zr361   2.379       .  S
O352       Zr361   2.375       .  S
O352        H377   0.964       .  S
C353       C1514   1.479       .  S
C354       C1462   1.475       .  S
C355       C1786   1.480       .  S
O356        H392   0.990       .  S
O357        C359   1.286       .  A
O358        C359   1.282       .  A
C359       C1496   1.474       .  S
O360       Zr361   2.439       .  S
O360        H389   0.990       .  S
Zr361       O364   2.437       .  S
Zr361       O365   2.439       .  S
Zr361       O366   2.417       .  S
O362        C367   1.285       .  A
O363        H380   0.990       .  S
O363        H395   0.990       .  S
O364        H381   0.990       .  S
O365        H385   0.990       .  S
O365        H394   0.990       .  S
O366        C367   1.282       .  A
C367       C1532   1.481   1_556  S
O368        H387   0.990       .  S
O368        H391   0.990       .  S
O369        H383   0.990       .  S
O369        H390   0.990       .  S
O370        C374   1.282       .  A
O371        C374   1.286       .  A
O372        H382   0.990       .  S
O373        H386   0.990       .  S
C374       C1478   1.475       .  S
Zr397       O398   2.440       .  S
Zr397       O399   2.438       .  S
Zr397       O400   2.448       .  S
Zr397       O403   2.445       .  S
Zr397       O405   2.379       .  S
Zr397       O406   2.383       .  S
Zr397       O407   2.407   1_556  S
Zr397       O408   2.400   1_556  S
O398        H454   0.990       .  S
O398        H462   0.990       .  S
O399        C419   1.284       .  A
O400        C421   1.287       .  A
O401       Zr411   2.412   1_556  S
O401        C420   1.281       .  A
O402       Zr410   2.411   1_565  S
O402        C421   1.279       .  A
O403        C420   1.287       .  A
O404       Zr412   2.419       .  S
O404        C419   1.282   1_545  A
O405       Zr410   2.389   1_565  S
O405       Zr412   2.374   1_565  S
O406       Zr411   2.388   1_556  S
O406       Zr412   2.378   1_565  S
O406        H441   0.969       .  S
O407       Zr410   2.394   1_564  S
O407       Zr427   2.395       .  S
O407        H444   0.966       .  S
O408       Zr411   2.387       .  S
O408       Zr427   2.391       .  S
Zr409       O434   2.443       .  S
Zr409       O428   2.437       .  S
Zr409       O436   2.442       .  S
Zr409       O424   2.451       .  S
Zr409       O415   2.402   1_554  S
Zr409       O416   2.405   1_554  S
Zr409       O417   2.379       .  S
Zr409       O418   2.383       .  S
Zr410       O429   2.438   1_546  S
Zr410       O422   2.435       .  S
Zr410       O423   2.414   1_556  S
Zr410       O416   2.392       .  S
Zr410       O417   2.383   1_556  S
Zr411       O413   2.436       .  S
Zr411       O435   2.436   1_564  S
Zr411       O437   2.417   1_565  S
Zr411       O415   2.388   1_564  S
Zr411       O418   2.382   1_565  S
Zr412       O438   2.437       .  S
Zr412       O439   2.435       .  S
Zr412       O414   2.438       .  S
Zr412       O415   2.393       .  S
Zr412       O416   2.397       .  S
O413        H450   0.990       .  S
O414        H445   0.990       .  S
O414        H459   0.990       .  S
O416        H442   0.965       .  S
O417       Zr427   2.372   1_545  S
O418       Zr427   2.374   1_545  S
O418        H443   0.966       .  S
C419       C1390   1.480       .  S
C420       C1426   1.472       .  S
C421       C1498   1.471       .  S
O422        H458   0.990       .  S
O423        C425   1.281       .  A
O424        C425   1.288       .  A
C425       C1730   1.474       .  S
O426       Zr427   2.438       .  S
O426        H455   0.990       .  S
Zr427       O430   2.437       .  S
Zr427       O431   2.439       .  S
Zr427       O432   2.426       .  S
O428        C433   1.285       .  A
O429        H446   0.990       .  S
O429        H461   0.990       .  S
O430        H447   0.990       .  S
O431        H451   0.990       .  S
O431        H460   0.990       .  S
O432        C433   1.284   1_565  A
C433       C1406   1.480       .  S
O434        H453   0.990       .  S
O434        H457   0.990       .  S
O435        H449   0.990       .  S
O435        H456   0.990       .  S
O436        C440   1.286       .  A
O437        C440   1.283       .  A
O438        H448   0.990       .  S
O439        H452   0.990       .  S
C440       C1442   1.477       .  S
Zr463       O464   2.442       .  S
Zr463       O465   2.437       .  S
Zr463       O466   2.443       .  S
Zr463       O469   2.431       .  S
Zr463       O471   2.382       .  S
Zr463       O472   2.386       .  S
Zr463       O473   2.404       .  S
Zr463       O474   2.401       .  S
O464        H520   0.990       .  S
O464        H528   0.990       .  S
O465        C485   1.283       .  A
O466        C487   1.286       .  A
O467       Zr477   2.444       .  S
O467        C486   1.287       .  A
O468       Zr476   2.427   1_565  S
O468        C487   1.282       .  A
O469        C486   1.283       .  A
O470       Zr478   2.414       .  S
O470        C485   1.281   1_545  A
O471       Zr476   2.397   1_565  S
O471       Zr478   2.379   1_565  S
O472       Zr477   2.395       .  S
O472       Zr478   2.371   1_565  S
O472        H507   0.967       .  S
O473       Zr476   2.402   1_565  S
O473       Zr493   2.388       .  S
O473        H510   0.966       .  S
O474       Zr477   2.396       .  S
O474       Zr493   2.394       .  S
Zr475       O500   2.442       .  S
Zr475       O494   2.451       .  S
Zr475       O502   2.432       .  S
Zr475       O490   2.451       .  S
Zr475       O481   2.408       .  S
Zr475       O482   2.409       .  S
Zr475       O483   2.376       .  S
Zr475       O484   2.386       .  S
Zr476       O495   2.435   1_545  S
Zr476       O488   2.435       .  S
Zr476       O489   2.434       .  S
Zr476       O482   2.395       .  S
Zr476       O483   2.398       .  S
Zr477       O479   2.436       .  S
Zr477       O501   2.439   1_565  S
Zr477       O503   2.443   1_565  S
Zr477       O481   2.396   1_565  S
Zr477       O484   2.398   1_565  S
Zr478       O504   2.436       .  S
Zr478       O505   2.435       .  S
Zr478       O480   2.437       .  S
Zr478       O481   2.388       .  S
Zr478       O482   2.394       .  S
O479        H516   0.990       .  S
O480        H511   0.990       .  S
O480        H525   0.990       .  S
O482        H508   0.965       .  S
O483       Zr493   2.384   1_545  S
O484       Zr493   2.382   1_545  S
O484        H509   0.965       .  S
C485       C1408   1.480       .  S
C486       C1352   1.483       .  S
C487       C1588   1.477       .  S
O488        H524   0.990       .  S
O489        C491   1.285       .  A
O490        C491   1.286       .  A
C491       C1642   1.485       .  S
O492       Zr493   2.439       .  S
O492        H521   0.990       .  S
Zr493       O496   2.437       .  S
Zr493       O497   2.439       .  S
Zr493       O498   2.414       .  S
O494        C499   1.285       .  A
O495        H512   0.990       .  S
O495        H527   0.990       .  S
O496        H513   0.990       .  S
O497        H517   0.990       .  S
O497        H526   0.990       .  S
O498        C499   1.281   1_565  A
C499       C1388   1.483       .  S
O500        H519   0.990       .  S
O500        H523   0.991       .  S
O501        H515   0.990   1_545  S
O501        H522   0.990   1_545  S
O502        C506   1.283       .  A
O503        C506   1.287       .  A
O504        H514   0.990       .  S
O505        H518   0.990       .  S
C506       C1370   1.478       .  S
Zr529       O530   2.440       .  S
Zr529       O531   2.441       .  S
Zr529       O532   2.460       .  S
Zr529       O535   2.448       .  S
Zr529       O537   2.385       .  S
Zr529       O538   2.391       .  S
Zr529       O539   2.406       .  S
Zr529       O540   2.405       .  S
O530        H586   0.990       .  S
O530        H594   0.990       .  S
O531        C551   1.284       .  A
O532        C553   1.289       .  A
O533       Zr543   2.423       .  S
O533        C552   1.283       .  A
O534       Zr542   2.418       .  S
O534        C553   1.281       .  A
O535        C552   1.288       .  A
O536       Zr544   2.417       .  S
O536        C551   1.281       .  A
O537       Zr542   2.401       .  S
O537       Zr544   2.380       .  S
O538       Zr543   2.397       .  S
O538       Zr544   2.374       .  S
O538        H573   0.968       .  S
O539       Zr542   2.402       .  S
O539       Zr559   2.390       .  S
O539        H576   0.966       .  S
O540       Zr543   2.393       .  S
O540       Zr559   2.390       .  S
Zr541       O566   2.441       .  S
Zr541       O560   2.453       .  S
Zr541       O568   2.431       .  S
Zr541       O556   2.451       .  S
Zr541       O547   2.406       .  S
Zr541       O548   2.414       .  S
Zr541       O549   2.374       .  S
Zr541       O550   2.385       .  S
Zr542       O561   2.436       .  S
Zr542       O554   2.435       .  S
Zr542       O555   2.426       .  S
Zr542       O548   2.398       .  S
Zr542       O549   2.392       .  S
Zr543       O545   2.437       .  S
Zr543       O567   2.440       .  S
Zr543       O569   2.438       .  S
Zr543       O547   2.383       .  S
Zr543       O550   2.395       .  S
Zr544       O570   2.435       .  S
Zr544       O571   2.434       .  S
Zr544       O546   2.436       .  S
Zr544       O547   2.390       .  S
Zr544       O548   2.393       .  S
O545        H582   0.990       .  S
O546        H577   0.990       .  S
O546        H591   0.990       .  S
O548        H574   0.965       .  S
O549       Zr559   2.384       .  S
O550       Zr559   2.385       .  S
O550        H575   0.967       .  S
C551       C1282   1.480       .  S
C552       C1354   1.477       .  S
C553       C1336   1.476       .  S
O554        H590   0.990       .  S
O555        C557   1.283       .  A
O556        C557   1.285       .  A
C557       C1318   1.481       .  S
O558       Zr559   2.440       .  S
O558        H587   0.990       .  S
Zr559       O562   2.437       .  S
Zr559       O563   2.439       .  S
Zr559       O564   2.410       .  S
O560        C565   1.285       .  A
O561        H578   0.990       .  S
O561        H593   0.990       .  S
O562        H579   0.990       .  S
O563        H583   0.990       .  S
O563        H592   0.990       .  S
O564        C565   1.280       .  A
C565       C1298   1.484       .  S
O566        H585   0.991       .  S
O566        H589   0.990       .  S
O567        H581   0.990       .  S
O567        H588   0.990       .  S
O568        C572   1.283       .  A
O569        C572   1.286       .  A
O570        H580   0.990       .  S
O571        H584   0.990       .  S
C572       C1874   1.477       .  S
Zr595       O596   2.441       .  S
Zr595       O597   2.439       .  S
Zr595       O598   2.465       .  S
Zr595       O601   2.437       .  S
Zr595       O603   2.376       .  S
Zr595       O604   2.393       .  S
Zr595       O605   2.406       .  S
Zr595       O606   2.403       .  S
O596        H652   0.990       .  S
O596        H660   0.990       .  S
O597        C617   1.284       .  A
O598        C619   1.289       .  A
O599       Zr609   2.429       .  S
O599        C618   1.284       .  A
O600       Zr608   2.408       .  S
O600        C619   1.279       .  A
O601        C618   1.286       .  A
O602       Zr610   2.415       .  S
O602        C617   1.281       .  A
O603       Zr608   2.388       .  S
O603       Zr610   2.374       .  S
O604       Zr609   2.398       .  S
O604       Zr610   2.378       .  S
O604        H639   0.969       .  S
O605       Zr608   2.401       .  S
O605       Zr625   2.395       .  S
O605        H642   0.965       .  S
O606       Zr609   2.395       .  S
O606       Zr625   2.389       .  S
Zr607       O632   2.449       .  S
Zr607       O626   2.442       .  S
Zr607       O634   2.435       .  S
Zr607       O622   2.447       .  S
Zr607       O613   2.407       .  S
Zr607       O614   2.405       .  S
Zr607       O615   2.375       .  S
Zr607       O616   2.386       .  S
Zr608       O627   2.434       .  S
Zr608       O620   2.436       .  S
Zr608       O621   2.417       .  S
Zr608       O614   2.390       .  S
Zr608       O615   2.387       .  S
Zr609       O611   2.438       .  S
Zr609       O633   2.435       .  S
Zr609       O635   2.448       .  S
Zr609       O613   2.389       .  S
Zr609       O616   2.390       .  S
Zr610       O636   2.436       .  S
Zr610       O637   2.435       .  S
Zr610       O612   2.436       .  S
Zr610       O613   2.392       .  S
Zr610       O614   2.392       .  S
O611        H648   0.990       .  S
O612        H643   0.990       .  S
O612        H657   0.990       .  S
O614        H640   0.967       .  S
O615       Zr625   2.374       .  S
O616       Zr625   2.379       .  S
O616        H641   0.966       .  S
C617       C1300   1.481   1_556  S
C618       C1424   1.477       .  S
C619       C1264   1.477       .  S
O620        H656   0.990       .  S
O621        C623   1.281       .  A
O622        C623   1.287       .  A
C623       C1244   1.472       .  S
O624       Zr625   2.438       .  S
O624        H653   0.991       .  S
Zr625       O628   2.437       .  S
Zr625       O629   2.440       .  S
Zr625       O630   2.416       .  S
O626        C631   1.285       .  A
O627        H644   0.990       .  S
O627        H659   0.990       .  S
O628        H645   0.990       .  S
O629        H649   0.990       .  S
O629        H658   0.990       .  S
O630        C631   1.282       .  A
C631       C1280   1.480       .  S
O632        H651   0.990       .  S
O632        H655   0.990       .  S
O633        H647   0.990       .  S
O633        H654   0.990       .  S
O634        C638   1.284       .  A
O635        C638   1.287       .  A
O636        H646   0.990       .  S
O637        H650   0.990       .  S
C638       C1768   1.479       .  S
Zr661       O662   2.440       .  S
Zr661       O663   2.439       .  S
Zr661       O664   2.461       .  S
Zr661       O667   2.429       .  S
Zr661       O669   2.376       .  S
Zr661       O670   2.387       .  S
Zr661       O671   2.409       .  S
Zr661       O672   2.407       .  S
O662        H718   0.990       .  S
O662        H726   0.990       .  S
O663        C683   1.283       .  A
O664        C685   1.287       .  A
O665       Zr675   2.447       .  S
O665        C684   1.288       .  A
O666       Zr674   2.391       .  S
O666        C685   1.278       .  A
O667        C684   1.283       .  A
O668       Zr676   2.411       .  S
O668        C683   1.280       .  A
O669       Zr674   2.394       .  S
O669       Zr676   2.379       .  S
O670       Zr675   2.396       .  S
O670       Zr676   2.377       .  S
O670        H705   0.966       .  S
O671       Zr674   2.397       .  S
O671       Zr691   2.400       .  S
O671        H708   0.966       .  S
O672       Zr675   2.392       .  S
O672       Zr691   2.391       .  S
Zr673       O698   2.449       .  S
Zr673       O692   2.429       .  S
Zr673       O700   2.423       .  S
Zr673       O688   2.441       .  S
Zr673       O679   2.400       .  S
Zr673       O680   2.396       .  S
Zr673       O681   2.375       .  S
Zr673       O682   2.387       .  S
Zr674       O693   2.439       .  S
Zr674       O686   2.434       .  S
Zr674       O687   2.412       .  S
Zr674       O680   2.387       .  S
Zr674       O681   2.380       .  S
Zr675       O677   2.435       .  S
Zr675       O699   2.436       .  S
Zr675       O701   2.451       .  S
Zr675       O679   2.396       .  S
Zr675       O682   2.386       .  S
Zr676       O702   2.435       .  S
Zr676       O703   2.435       .  S
Zr676       O678   2.438       .  S
Zr676       O679   2.389       .  S
Zr676       O680   2.395       .  S
O677        H714   0.990       .  S
O678        H709   0.990       .  S
O678        H723   0.990       .  S
O680        H706   0.966       .  S
O681       Zr691   2.373       .  S
O682       Zr691   2.376       .  S
O682        H707   0.966       .  S
C683       C1172   1.477   1_554  S
C684       C1444   1.477       .  S
C685       C1226   1.479       .  S
O686        H722   0.990       .  S
O687        C689   1.280       .  A
O688        C689   1.287       .  A
C689       C1208   1.473       .  S
O690       Zr691   2.440       .  S
O690        H719   0.990       .  S
Zr691       O694   2.436       .  S
Zr691       O695   2.440       .  S
Zr691       O696   2.426       .  S
O692        C697   1.284       .  A
O693        H710   0.990       .  S
O693        H725   0.990       .  S
O694        H711   0.990       .  S
O695        H715   0.990       .  S
O695        H724   0.990       .  S
O696        C697   1.284       .  A
C697       C1192   1.478       .  S
O698        H717   0.990       .  S
O698        H721   0.990       .  S
O699        H713   0.990       .  S
O699        H720   0.990       .  S
O700        C704   1.282       .  A
O701        C704   1.290       .  A
O702        H712   0.990       .  S
O703        H716   0.990       .  S
C704       C1858   1.479       .  S
Zr727       O728   2.440       .  S
Zr727       O729   2.452       .  S
Zr727       O730   2.456       .  S
Zr727       O733   2.443       .  S
Zr727       O735   2.384       .  S
Zr727       O736   2.386       .  S
Zr727       O737   2.412       .  S
Zr727       O738   2.408       .  S
O728        H784   0.990       .  S
O728        H792   0.990       .  S
O729        C749   1.287       .  A
O730        C751   1.287       .  A
O731       Zr741   2.435       .  S
O731        C750   1.285       .  A
O732       Zr740   2.415       .  S
O732        C751   1.283       .  A
O733        C750   1.287       .  A
O734       Zr742   2.417       .  S
O734        C749   1.282       .  A
O735       Zr740   2.399       .  S
O735       Zr742   2.380       .  S
O736       Zr741   2.391       .  S
O736       Zr742   2.378       .  S
O736        H771   0.966       .  S
O737       Zr740   2.398       .  S
O737       Zr757   2.390       .  S
O737        H774   0.965       .  S
O738       Zr741   2.386       .  S
O738       Zr757   2.396       .  S
Zr739       O764   2.441       .  S
Zr739       O758   2.439       .  S
Zr739       O766   2.437       .  S
Zr739       O754   2.447       .  S
Zr739       O745   2.402       .  S
Zr739       O746   2.405       .  S
Zr739       O747   2.378       .  S
Zr739       O748   2.387       .  S
Zr740       O759   2.439       .  S
Zr740       O752   2.434       .  S
Zr740       O753   2.424       .  S
Zr740       O746   2.396       .  S
Zr740       O747   2.388       .  S
Zr741       O743   2.435       .  S
Zr741       O765   2.437       .  S
Zr741       O767   2.425       .  S
Zr741       O745   2.392       .  S
Zr741       O748   2.390       .  S
Zr742       O768   2.434       .  S
Zr742       O769   2.436       .  S
Zr742       O744   2.436       .  S
Zr742       O745   2.391       .  S
Zr742       O746   2.392       .  S
O743        H780   0.990       .  S
O744        H775   0.990       .  S
O744        H789   0.990       .  S
O746        H772   0.965       .  S
O747       Zr757   2.377       .  S
O748       Zr757   2.380       .  S
O748        H773   0.966       .  S
C749       C1190   1.485       .  S
C750       C1372   1.484       .  S
C751       C1154   1.484       .  S
O752        H788   0.990       .  S
O753        C755   1.282       .  A
O754        C755   1.286       .  A
C755       C1136   1.478       .  S
O756       Zr757   2.440       .  S
O756        H785   0.990       .  S
Zr757       O760   2.437       .  S
Zr757       O761   2.439       .  S
Zr757       O762   2.413       .  S
O758        C763   1.284       .  A
O759        H776   0.990       .  S
O759        H791   0.990       .  S
O760        H777   0.990       .  S
O761        H781   0.990       .  S
O761        H790   0.990       .  S
O762        C763   1.281       .  A
C763       C1174   1.479       .  S
O764        H783   0.990       .  S
O764        H787   0.990       .  S
O765        H779   0.990       .  S
O765        H786   0.990       .  S
O766        C770   1.285       .  A
O767        C770   1.284       .  A
O768        H778   0.990       .  S
O769        H782   0.990       .  S
C770       C1748   1.481       .  S
Zr793       O794   2.441       .  S
Zr793       O795   2.445       .  S
Zr793       O796   2.423       .  S
Zr793       O799   2.437       .  S
Zr793       O801   2.381       .  S
Zr793       O802   2.379       .  S
Zr793       O803   2.414       .  S
Zr793       O804   2.397   1_554  S
O794        H850   0.990       .  S
O794        H858   0.990       .  S
O795        C815   1.284       .  A
O796        C817   1.282       .  A
O797       Zr807   2.427       .  S
O797        C816   1.285       .  A
O798       Zr806   2.441       .  S
O798        C817   1.285       .  A
O799        C816   1.284       .  A
O800       Zr808   2.414       .  S
O800        C815   1.281       .  A
O801       Zr806   2.399       .  S
O801       Zr808   2.378       .  S
O802       Zr807   2.392       .  S
O802       Zr808   2.379       .  S
O802        H837   0.967       .  S
O803       Zr806   2.406       .  S
O803       Zr823   2.389   1_554  S
O803        H840   0.965       .  S
O804       Zr807   2.384   1_556  S
O804       Zr823   2.390       .  S
Zr805       O830   2.442       .  S
Zr805       O824   2.445       .  S
Zr805       O832   2.439       .  S
Zr805       O820   2.440       .  S
Zr805       O811   2.404   1_556  S
Zr805       O812   2.405   1_556  S
Zr805       O813   2.380       .  S
Zr805       O814   2.379       .  S
Zr806       O825   2.435   1_554  S
Zr806       O818   2.435       .  S
Zr806       O819   2.444   1_554  S
Zr806       O812   2.399       .  S
Zr806       O813   2.397   1_554  S
Zr807       O809   2.436   1_554  S
Zr807       O831   2.434       .  S
Zr807       O833   2.416   1_554  S
Zr807       O811   2.397       .  S
Zr807       O814   2.391   1_554  S
Zr808       O834   2.436       .  S
Zr808       O835   2.436       .  S
Zr808       O810   2.437       .  S
Zr808       O811   2.397       .  S
Zr808       O812   2.388       .  S
O809        H846   0.990       .  S
O810        H841   0.990       .  S
O810        H855   0.990       .  S
O812        H838   0.966       .  S
O813       Zr823   2.381       .  S
O814       Zr823   2.373       .  S
O814        H839   0.966       .  S
C815       C1120   1.483       .  S
C816       C1714   1.481       .  S
C817       C1228   1.477       .  S
O818        H854   0.990       .  S
O819        C821   1.287       .  A
O820        C821   1.285       .  A
C821       C1262   1.483       .  S
O822       Zr823   2.437       .  S
O822        H851   0.990       .  S
Zr823       O826   2.437       .  S
Zr823       O827   2.441       .  S
Zr823       O828   2.411       .  S
O824        C829   1.285       .  A
O825        H842   0.990       .  S
O825        H857   0.990       .  S
O826        H843   0.990       .  S
O827        H847   0.990       .  S
O827        H856   0.990       .  S
O828        C829   1.280       .  A
C829       C1100   1.479       .  S
O830        H849   0.990       .  S
O830        H853   0.990       .  S
O831        H845   0.990       .  S
O831        H852   0.990       .  S
O832        C836   1.286       .  A
O833        C836   1.280       .  A
O834        H844   0.990       .  S
O835        H848   0.990       .  S
C836       C1480   1.475       .  S
Zr859       O860   2.441       .  S
Zr859       O861   2.431       .  S
Zr859       O862   2.444       .  S
Zr859       O865   2.436       .  S
Zr859       O867   2.382       .  S
Zr859       O868   2.384       .  S
Zr859       O869   2.402       .  S
Zr859       O870   2.402       .  S
O860        H916   0.990       .  S
O860        H924   0.990       .  S
O861        C881   1.282       .  A
O862        C883   1.286       .  A
O863       Zr873   2.438       .  S
O863        C882   1.286       .  A
O864       Zr872   2.419       .  S
O864        C883   1.281       .  A
O865        C882   1.285       .  A
O866       Zr874   2.420       .  S
O866        C881   1.283       .  A
O867       Zr872   2.391       .  S
O867       Zr874   2.375       .  S
O868       Zr873   2.391       .  S
O868       Zr874   2.374       .  S
O868        H903   0.966       .  S
O869       Zr872   2.400       .  S
O869       Zr889   2.387       .  S
O869        H906   0.966       .  S
O870       Zr873   2.395       .  S
O870       Zr889   2.394       .  S
Zr871       O896   2.441       .  S
Zr871       O890   2.445       .  S
Zr871       O898   2.428       .  S
Zr871       O886   2.455       .  S
Zr871       O877   2.407       .  S
Zr871       O878   2.409       .  S
Zr871       O879   2.377       .  S
Zr871       O880   2.385       .  S
Zr872       O891   2.435       .  S
Zr872       O884   2.435       .  S
Zr872       O885   2.422       .  S
Zr872       O878   2.397       .  S
Zr872       O879   2.397       .  S
Zr873       O875   2.435       .  S
Zr873       O897   2.439       .  S
Zr873       O899   2.431       .  S
Zr873       O877   2.390       .  S
Zr873       O880   2.395       .  S
Zr874       O900   2.435       .  S
Zr874       O901   2.436       .  S
Zr874       O876   2.436       .  S
Zr874       O877   2.390       .  S
Zr874       O878   2.391       .  S
O875        H912   0.990       .  S
O876        H907   0.990       .  S
O876        H921   0.990       .  S
O878        H904   0.965       .  S
O879       Zr889   2.385       .  S
O880       Zr889   2.378       .  S
O880        H905   0.965       .  S
C881       C1102   1.478       .  S
C882       C1624   1.480       .  S
C883       C1156   1.472       .  S
O884        H920   0.990       .  S
O885        C887   1.282       .  A
O886        C887   1.287       .  A
C887       C1334   1.479       .  S
O888       Zr889   2.439       .  S
O888        H917   0.991       .  S
Zr889       O892   2.438       .  S
Zr889       O893   2.440       .  S
Zr889       O894   2.404       .  S
O890        C895   1.284       .  A
O891        H908   0.990       .  S
O891        H923   0.990       .  S
O892        H909   0.990       .  S
O893        H913   0.990       .  S
O893        H922   0.989       .  S
O894        C895   1.279       .  A
C895       C1118   1.479       .  S
O896        H915   0.990       .  S
O896        H919   0.990       .  S
O897        H911   0.990       .  S
O897        H918   0.990       .  S
O898        C902   1.283       .  A
O899        C902   1.285       .  A
O900        H910   0.991       .  S
O901        H914   0.990       .  S
C902       C1570   1.477       .  S
Zr925       O926   2.441       .  S
Zr925       O927   2.428       .  S
Zr925       O928   2.453       .  S
Zr925       O931   2.432   1_655  S
Zr925       O933   2.381       .  S
Zr925       O934   2.388   1_655  S
Zr925       O935   2.399       .  S
Zr925       O936   2.404   1_655  S
O926        H982   0.991       .  S
O926        H990   0.990       .  S
O927        C947   1.282       .  A
O928        C949   1.287       .  A
O929       Zr939   2.426       .  S
O929        C948   1.284       .  A
O930       Zr938   2.422       .  S
O930        C949   1.282       .  A
O931        C948   1.284       .  A
O932       Zr940   2.423       .  S
O932        C947   1.283       .  A
O933       Zr938   2.395       .  S
O933       Zr940   2.381       .  S
O934       Zr939   2.394       .  S
O934       Zr940   2.371   1_455  S
O934        H969   0.967       .  S
O935       Zr938   2.396       .  S
O935       Zr955   2.391       .  S
O935        H972   0.966       .  S
O936       Zr939   2.394       .  S
O936       Zr955   2.390   1_455  S
Zr937       O962   2.443       .  S
Zr937       O956   2.447       .  S
Zr937       O964   2.442   1_655  S
Zr937       O952   2.441       .  S
Zr937       O943   2.401   1_655  S
Zr937       O944   2.411       .  S
Zr937       O945   2.378       .  S
Zr937       O946   2.385   1_655  S
Zr938       O957   2.436       .  S
Zr938       O950   2.435       .  S
Zr938       O951   2.423       .  S
Zr938       O944   2.395       .  S
Zr938       O945   2.393       .  S
Zr939       O941   2.437       .  S
Zr939       O963   2.437       .  S
Zr939       O965   2.433       .  S
Zr939       O943   2.388       .  S
Zr939       O946   2.396       .  S
Zr940       O966   2.434   1_655  S
Zr940       O967   2.435   1_655  S
Zr940       O942   2.435       .  S
Zr940       O943   2.388   1_655  S
Zr940       O944   2.389       .  S
O941        H978   0.990       .  S
O942        H973   0.990       .  S
O942        H987   0.990       .  S
O944        H970   0.965       .  S
O945       Zr955   2.384       .  S
O946       Zr955   2.386   1_455  S
O946        H971   0.966       .  S
C947       C1066   1.478       .  S
C948       C1550   1.476       .  S
C949       C1316   1.480       .  S
O950        H986   0.990       .  S
O951        C953   1.283       .  A
O952        C953   1.285       .  A
C953       C1210   1.475       .  S
O954       Zr955   2.439       .  S
O954        H983   0.990       .  S
Zr955       O958   2.438       .  S
Zr955       O959   2.439   1_655  S
Zr955       O960   2.409       .  S
O956        C961   1.285       .  A
O957        H974   0.990       .  S
O957        H989   0.990       .  S
O958        H975   0.990       .  S
O959        H979   0.990       .  S
O959        H988   0.990       .  S
O960        C961   1.280       .  A
C961       C1084   1.480       .  S
O962        H981   0.990   1_655  S
O962        H985   0.991       .  S
O963        H977   0.990       .  S
O963        H984   0.990       .  S
O964        C968   1.283       .  A
O965        C968   1.284       .  A
O966        H976   0.990       .  S
O967        H980   0.990       .  S
C968       C1696   1.479       .  S
Zr991       O992   2.443       .  S
Zr991       O993   2.451       .  S
Zr991       O994   2.440       .  S
Zr991       O997   2.437   1_655  S
Zr991       O999   2.382       .  S
Zr991      O1000   2.386   1_655  S
Zr991      O1001   2.414       .  S
Zr991      O1002   2.403   1_655  S
O992       H1048   0.990       .  S
O992       H1056   0.991       .  S
O993       C1013   1.285       .  A
O994       C1015   1.284       .  A
O995      Zr1005   2.424       .  S
O995       C1014   1.284       .  A
O996      Zr1004   2.437       .  S
O996       C1015   1.284       .  A
O997       C1014   1.284       .  A
O998      Zr1006   2.403       .  S
O998       C1013   1.279       .  A
O999      Zr1004   2.397       .  S
O999      Zr1006   2.387       .  S
O1000     Zr1005   2.392       .  S
O1000     Zr1006   2.380   1_455  S
O1000      H1035   0.966       .  S
O1001     Zr1004   2.400       .  S
O1001     Zr1021   2.386       .  S
O1001      H1038   0.965       .  S
O1002     Zr1005   2.385       .  S
O1002     Zr1021   2.388   1_455  S
Zr1003     O1028   2.448       .  S
Zr1003     O1022   2.437       .  S
Zr1003     O1030   2.447       .  S
Zr1003     O1018   2.445   1_455  S
Zr1003     O1009   2.403       .  S
Zr1003     O1010   2.405   1_455  S
Zr1003     O1011   2.384   1_455  S
Zr1003     O1012   2.385       .  S
Zr1004     O1023   2.437       .  S
Zr1004     O1016   2.436       .  S
Zr1004     O1017   2.425       .  S
Zr1004     O1010   2.398       .  S
Zr1004     O1011   2.393       .  S
Zr1005     O1007   2.436       .  S
Zr1005     O1029   2.436       .  S
Zr1005     O1031   2.417       .  S
Zr1005     O1009   2.391       .  S
Zr1005     O1012   2.388       .  S
Zr1006     O1032   2.436   1_655  S
Zr1006     O1033   2.437   1_655  S
Zr1006     O1008   2.436       .  S
Zr1006     O1009   2.389   1_655  S
Zr1006     O1010   2.389       .  S
O1007      H1044   0.990       .  S
O1008      H1039   0.990       .  S
O1008      H1053   0.990       .  S
O1010      H1036   0.965       .  S
O1011     Zr1021   2.377       .  S
O1012     Zr1021   2.370   1_455  S
O1012      H1037   0.966       .  S
C1013      C1082   1.482       .  S
C1014      C1460   1.479       .  S
C1015      C1246   1.478       .  S
O1016      H1052   0.990       .  S
O1017      C1019   1.284       .  A
O1018      C1019   1.286       .  A
C1019      C1138   1.480       .  S
O1020     Zr1021   2.439       .  S
O1020      H1049   0.990       .  S
Zr1021     O1024   2.437       .  S
Zr1021     O1025   2.440   1_655  S
Zr1021     O1026   2.415       .  S
O1022      C1027   1.285       .  A
O1023      H1040   0.990       .  S
O1023      H1055   0.990       .  S
O1024      H1041   0.990       .  S
O1025      H1045   0.990       .  S
O1025      H1054   0.990       .  S
O1026      C1027   1.282   1_655  A
C1027      C1064   1.478       .  S
O1028      H1047   0.990       .  S
O1028      H1051   0.990   1_455  S
O1029      H1043   0.990       .  S
O1029      H1050   0.990       .  S
O1030      C1034   1.288       .  A
O1031      C1034   1.281       .  A
O1032      H1042   0.990       .  S
O1033      H1046   0.990   1_455  S
C1034      C1604   1.474       .  S
C1057      C1065   1.487       .  S
C1057      C1058   1.404   1_655  A
C1057      C1062   1.408       .  A
C1058      C1059   1.397       .  A
C1058      H1067   1.083       .  S
C1059      C1060   1.405   1_455  A
C1059      H1068   1.081       .  S
C1060      C1063   1.484       .  S
C1060      C1061   1.404       .  A
C1061      C1062   1.397       .  A
C1061      H1069   1.084       .  S
C1062      H1070   1.080       .  S
C1063      H1071   1.087       .  S
C1063      C1064   1.349   1_655  D
C1064      H1072   1.084       .  S
C1065      H1073   1.087       .  S
C1065      C1066   1.347       .  D
C1066      H1074   1.084       .  S
C1075      C1083   1.490       .  S
C1075      C1076   1.406       .  A
C1075      C1080   1.407       .  A
C1076      C1077   1.399   1_554  A
C1076      H1085   1.083       .  S
C1077      C1078   1.406       .  A
C1077      H1086   1.080       .  S
C1078      C1081   1.489       .  S
C1078      C1079   1.405       .  A
C1079      C1080   1.397   1_556  A
C1079      H1087   1.084       .  S
C1080      H1088   1.080       .  S
C1081      H1089   1.087       .  S
C1081      C1082   1.352       .  D
C1082      H1090   1.083       .  S
C1083      H1091   1.087       .  S
C1083      C1084   1.351       .  D
C1084      H1092   1.083       .  S
C1093      C1101   1.485       .  S
C1093      C1094   1.403       .  A
C1093      C1098   1.407       .  A
C1094      C1095   1.396       .  A
C1094      H1103   1.084       .  S
C1095      C1096   1.407       .  A
C1095      H1104   1.079       .  S
C1096      C1099   1.489       .  S
C1096      C1097   1.406       .  A
C1097      C1098   1.399       .  A
C1097      H1105   1.084       .  S
C1098      H1106   1.081       .  S
C1099      H1107   1.087       .  S
C1099      C1100   1.351       .  D
C1100      H1108   1.083       .  S
C1101      H1109   1.087       .  S
C1101      C1102   1.348       .  D
C1102      H1110   1.084       .  S
C1111      C1119   1.488       .  S
C1111      C1112   1.405       .  A
C1111      C1116   1.407       .  A
C1112      C1113   1.398       .  A
C1112      H1121   1.083       .  S
C1113      C1114   1.406       .  A
C1113      H1122   1.080       .  S
C1114      C1117   1.487       .  S
C1114      C1115   1.406       .  A
C1115      C1116   1.399       .  A
C1115      H1123   1.084       .  S
C1116      H1124   1.081       .  S
C1117      H1125   1.087       .  S
C1117      C1118   1.351       .  D
C1118      H1126   1.083       .  S
C1119      H1127   1.087       .  S
C1119      C1120   1.350       .  D
C1120      H1128   1.084       .  S
C1129      C1137   1.488       .  S
C1129      C1130   1.405       .  A
C1129      C1134   1.407       .  A
C1130      C1131   1.399       .  A
C1130      H1139   1.084       .  S
C1131      C1132   1.408       .  A
C1131      H1140   1.081       .  S
C1132      C1135   1.489       .  S
C1132      C1133   1.404       .  A
C1133      C1134   1.398       .  A
C1133      H1141   1.083       .  S
C1134      H1142   1.081       .  S
C1135      H1143   1.087       .  S
C1135      C1136   1.347       .  D
C1136      H1144   1.085       .  S
C1137      H1145   1.087       .  S
C1137      C1138   1.350       .  D
C1138      H1146   1.084       .  S
C1147      C1155   1.486       .  S
C1147      C1148   1.405       .  A
C1147      C1152   1.405       .  A
C1148      C1149   1.402       .  A
C1148      H1157   1.083       .  S
C1149      C1150   1.409       .  A
C1149      H1158   1.080       .  S
C1150      C1153   1.488       .  S
C1150      C1151   1.404       .  A
C1151      C1152   1.394       .  A
C1151      H1159   1.084       .  S
C1152      H1160   1.082       .  S
C1153      H1161   1.087       .  S
C1153      C1154   1.351       .  D
C1154      H1162   1.083       .  S
C1155      H1163   1.087       .  S
C1155      C1156   1.346       .  D
C1156      H1164   1.085       .  S
C1165      C1173   1.487       .  S
C1165      C1166   1.404       .  A
C1165      C1170   1.407       .  A
C1166      C1167   1.396       .  A
C1166      H1175   1.084       .  S
C1167      C1168   1.407       .  A
C1167      H1176   1.079       .  S
C1168      C1171   1.487       .  S
C1168      C1169   1.405       .  A
C1169      C1170   1.398       .  A
C1169      H1177   1.084       .  S
C1170      H1178   1.080       .  S
C1171      H1179   1.087       .  S
C1171      C1172   1.350       .  D
C1172      H1180   1.083       .  S
C1173      H1181   1.087       .  S
C1173      C1174   1.349       .  D
C1174      H1182   1.083       .  S
C1183      C1191   1.487       .  S
C1183      C1184   1.405       .  A
C1183      C1188   1.407       .  A
C1184      C1185   1.401       .  A
C1184      H1193   1.083       .  S
C1185      C1186   1.407       .  A
C1185      H1194   1.082       .  S
C1186      C1189   1.487       .  S
C1186      C1187   1.403       .  A
C1187      C1188   1.398       .  A
C1187      H1195   1.083       .  S
C1188      H1196   1.081       .  S
C1189      H1197   1.087       .  S
C1189      C1190   1.350       .  D
C1190      H1198   1.085       .  S
C1191      H1199   1.087       .  S
C1191      C1192   1.348       .  D
C1192      H1200   1.085       .  S
C1201      C1209   1.486       .  S
C1201      C1202   1.404       .  A
C1201      C1206   1.408       .  A
C1202      C1203   1.398       .  A
C1202      H1211   1.084       .  S
C1203      C1204   1.407       .  A
C1203      H1212   1.082       .  S
C1204      C1207   1.484       .  S
C1204      C1205   1.402       .  A
C1205      C1206   1.396       .  A
C1205      H1213   1.083       .  S
C1206      H1214   1.080       .  S
C1207      H1215   1.087       .  S
C1207      C1208   1.343       .  D
C1208      H1216   1.085       .  S
C1209      H1217   1.087       .  S
C1209      C1210   1.348       .  D
C1210      H1218   1.084       .  S
C1219      C1227   1.484       .  S
C1219      C1220   1.406       .  A
C1219      C1224   1.405       .  A
C1220      C1221   1.397       .  A
C1220      H1229   1.083       .  S
C1221      C1222   1.404       .  A
C1221      H1230   1.081       .  S
C1222      C1225   1.481       .  S
C1222      C1223   1.404       .  A
C1223      C1224   1.397       .  A
C1223      H1231   1.084       .  S
C1224      H1232   1.081       .  S
C1225      H1233   1.087       .  S
C1225      C1226   1.351       .  D
C1226      H1234   1.085       .  S
C1227      H1235   1.087       .  S
C1227      C1228   1.350       .  D
C1228      H1236   1.084       .  S
C1237      C1245   1.481       .  S
C1237      C1238   1.401       .  A
C1237      C1242   1.408       .  A
C1238      C1239   1.396       .  A
C1238      H1247   1.083       .  S
C1239      C1240   1.405       .  A
C1239      H1248   1.083       .  S
C1240      C1243   1.479       .  S
C1240      C1241   1.401       .  A
C1241      C1242   1.401       .  A
C1241      H1249   1.083       .  S
C1242      H1250   1.083       .  S
C1243      H1251   1.086       .  S
C1243      C1244   1.341       .  D
C1244      H1252   1.088       .  S
C1245      H1253   1.087       .  S
C1245      C1246   1.346       .  D
C1246      H1254   1.086       .  S
C1255      C1263   1.492       .  S
C1255      C1256   1.403       .  A
C1255      C1260   1.409       .  A
C1256      C1257   1.401       .  A
C1256      H1265   1.083       .  S
C1257      C1258   1.410       .  A
C1257      H1266   1.080       .  S
C1258      C1261   1.494       .  S
C1258      C1259   1.404       .  A
C1259      C1260   1.399       .  A
C1259      H1267   1.083       .  S
C1260      H1268   1.082       .  S
C1261      H1269   1.087       .  S
C1261      C1262   1.349       .  D
C1262      H1270   1.084       .  S
C1263      H1271   1.087       .  S
C1263      C1264   1.345       .  D
C1264      H1272   1.085       .  S
C1273      C1281   1.488       .  S
C1273      C1274   1.405       .  A
C1273      C1278   1.406       .  A
C1274      C1275   1.399       .  A
C1274      H1283   1.083       .  S
C1275      C1276   1.407       .  A
C1275      H1284   1.081       .  S
C1276      C1279   1.487       .  S
C1276      C1277   1.404       .  A
C1277      C1278   1.398       .  A
C1277      H1285   1.083       .  S
C1278      H1286   1.081       .  S
C1279      H1287   1.087       .  S
C1279      C1280   1.350       .  D
C1280      H1288   1.084       .  S
C1281      H1289   1.087       .  S
C1281      C1282   1.350       .  D
C1282      H1290   1.084       .  S
C1291      C1299   1.491       .  S
C1291      C1292   1.406       .  A
C1291      C1296   1.407       .  A
C1292      C1293   1.400       .  A
C1292      H1301   1.084       .  S
C1293      C1294   1.407       .  A
C1293      H1302   1.080       .  S
C1294      C1297   1.492       .  S
C1294      C1295   1.405       .  A
C1295      C1296   1.398       .  A
C1295      H1303   1.083       .  S
C1296      H1304   1.080       .  S
C1297      H1305   1.087       .  S
C1297      C1298   1.351       .  D
C1298      H1306   1.083       .  S
C1299      H1307   1.087       .  S
C1299      C1300   1.351       .  D
C1300      H1308   1.083       .  S
C1309      C1317   1.490       .  S
C1309      C1310   1.404       .  A
C1309      C1314   1.408       .  A
C1310      C1311   1.400       .  A
C1310      H1319   1.083       .  S
C1311      C1312   1.409       .  A
C1311      H1320   1.081       .  S
C1312      C1315   1.492       .  S
C1312      C1313   1.404       .  A
C1313      C1314   1.400       .  A
C1313      H1321   1.083       .  S
C1314      H1322   1.081       .  S
C1315      H1323   1.087       .  S
C1315      C1316   1.347       .  D
C1316      H1324   1.085       .  S
C1317      H1325   1.087       .  S
C1317      C1318   1.349       .  D
C1318      H1326   1.085       .  S
C1327      C1335   1.482       .  S
C1327      C1328   1.402       .  A
C1327      C1332   1.406       .  A
C1328      C1329   1.401       .  A
C1328      H1337   1.083       .  S
C1329      C1330   1.408       .  A
C1329      H1338   1.083       .  S
C1330      C1333   1.483       .  S
C1330      C1331   1.401       .  A
C1331      C1332   1.398       .  A
C1331      H1339   1.083       .  S
C1332      H1340   1.083       .  S
C1333      H1341   1.087       .  S
C1333      C1334   1.344       .  D
C1334      H1342   1.087       .  S
C1335      H1343   1.086       .  S
C1335      C1336   1.342       .  D
C1336      H1344   1.088       .  S
C1345      C1353   1.492       .  S
C1345      C1346   1.404       .  A
C1345      C1350   1.408       .  A
C1346      C1347   1.403       .  A
C1346      H1355   1.083       .  S
C1347      C1348   1.410       .  A
C1347      H1356   1.081       .  S
C1348      C1351   1.491       .  S
C1348      C1349   1.402       .  A
C1349      C1350   1.397       .  A
C1349      H1357   1.083       .  S
C1350      H1358   1.081       .  S
C1351      H1359   1.087       .  S
C1351      C1352   1.347       .  D
C1352      H1360   1.085       .  S
C1353      H1361   1.087       .  S
C1353      C1354   1.346       .  D
C1354      H1362   1.085       .  S
C1363      C1371   1.494       .  S
C1363      C1364   1.403       .  A
C1363      C1368   1.410       .  A
C1364      C1365   1.398       .  A
C1364      H1373   1.083       .  S
C1365      C1366   1.408       .  A
C1365      H1374   1.082       .  S
C1366      C1369   1.492       .  S
C1366      C1367   1.403       .  A
C1367      C1368   1.403       .  A
C1367      H1375   1.083       .  S
C1368      H1376   1.081       .  S
C1369      H1377   1.087       .  S
C1369      C1370   1.346       .  D
C1370      H1378   1.086       .  S
C1371      H1379   1.087       .  S
C1371      C1372   1.348       .  D
C1372      H1380   1.085       .  S
C1381      C1389   1.490       .  S
C1381      C1382   1.406       .  A
C1381      C1386   1.407   1_545  A
C1382      C1383   1.400       .  A
C1382      H1391   1.084       .  S
C1383      C1384   1.407   1_545  A
C1383      H1392   1.080       .  S
C1384      C1387   1.490       .  S
C1384      C1385   1.405       .  A
C1385      C1386   1.398       .  A
C1385      H1393   1.083       .  S
C1386      H1394   1.080       .  S
C1387      H1395   1.087       .  S
C1387      C1388   1.351   1_565  D
C1388      H1396   1.084       .  S
C1389      H1397   1.087       .  S
C1389      C1390   1.350   1_545  D
C1390      H1398   1.083       .  S
C1399      C1407   1.482   1_565  S
C1399      C1400   1.404   1_565  A
C1399      C1404   1.405       .  A
C1400      C1401   1.397       .  A
C1400      H1409   1.084       .  S
C1401      C1402   1.406   1_545  A
C1401      H1410   1.081       .  S
C1402      C1405   1.487       .  S
C1402      C1403   1.406       .  A
C1403      C1404   1.399       .  A
C1403      H1411   1.083       .  S
C1404      H1412   1.082       .  S
C1405      H1413   1.087       .  S
C1405      C1406   1.350   1_565  D
C1406      H1414   1.085       .  S
C1407      H1415   1.087       .  S
C1407      C1408   1.349   1_545  D
C1408      H1416   1.085       .  S
C1417      C1425   1.480       .  S
C1417      C1418   1.402       .  A
C1417      C1422   1.406       .  A
C1418      C1419   1.400       .  A
C1418      H1427   1.083       .  S
C1419      C1420   1.408       .  A
C1419      H1428   1.083       .  S
C1420      C1423   1.482       .  S
C1420      C1421   1.401       .  A
C1421      C1422   1.396       .  A
C1421      H1429   1.083       .  S
C1422      H1430   1.083       .  S
C1423      H1431   1.087       .  S
C1423      C1424   1.345       .  D
C1424      H1432   1.086       .  S
C1425      H1433   1.087       .  S
C1425      C1426   1.342       .  D
C1426      H1434   1.087       .  S
C1435      C1443   1.485       .  S
C1435      C1436   1.404       .  A
C1435      C1440   1.405       .  A
C1436      C1437   1.401       .  A
C1436      H1445   1.083       .  S
C1437      C1438   1.406       .  A
C1437      H1446   1.082       .  S
C1438      C1441   1.482       .  S
C1438      C1439   1.403       .  A
C1439      C1440   1.398       .  A
C1439      H1447   1.084       .  S
C1440      H1448   1.083       .  S
C1441      H1449   1.088       .  S
C1441      C1442   1.347       .  D
C1442      H1450   1.086       .  S
C1443      H1451   1.087       .  S
C1443      C1444   1.344       .  D
C1444      H1452   1.087       .  S
C1453      C1461   1.487       .  S
C1453      C1454   1.404       .  A
C1453      C1458   1.407       .  A
C1454      C1455   1.401       .  A
C1454      H1463   1.083       .  S
C1455      C1456   1.409       .  A
C1455      H1464   1.081       .  S
C1456      C1459   1.486       .  S
C1456      C1457   1.402       .  A
C1457      C1458   1.395       .  A
C1457      H1465   1.084       .  S
C1458      H1466   1.082       .  S
C1459      H1467   1.087       .  S
C1459      C1460   1.346       .  D
C1460      H1468   1.084       .  S
C1461      H1469   1.087       .  S
C1461      C1462   1.346       .  D
C1462      H1470   1.085       .  S
C1471      C1479   1.484       .  S
C1471      C1472   1.402       .  A
C1471      C1476   1.408       .  A
C1472      C1473   1.396       .  A
C1472      H1481   1.084       .  S
C1473      C1474   1.407       .  A
C1473      H1482   1.082       .  S
C1474      C1477   1.483       .  S
C1474      C1475   1.402       .  A
C1475      C1476   1.399       .  A
C1475      H1483   1.083       .  S
C1476      H1484   1.081       .  S
C1477      H1485   1.087       .  S
C1477      C1478   1.345       .  D
C1478      H1486   1.086       .  S
C1479      H1487   1.087       .  S
C1479      C1480   1.344       .  D
C1480      H1488   1.085       .  S
C1489      C1497   1.482       .  S
C1489      C1490   1.401       .  A
C1489      C1494   1.406       .  A
C1490      C1491   1.397       .  A
C1490      H1499   1.084       .  S
C1491      C1492   1.410       .  A
C1491      H1500   1.079       .  S
C1492      C1495   1.488       .  S
C1492      C1493   1.405       .  A
C1493      C1494   1.397       .  A
C1493      H1501   1.083       .  S
C1494      H1502   1.082       .  S
C1495      H1503   1.087       .  S
C1495      C1496   1.346       .  D
C1496      H1504   1.083       .  S
C1497      H1505   1.087       .  S
C1497      C1498   1.343       .  D
C1498      H1506   1.086       .  S
C1507      C1515   1.490       .  S
C1507      C1508   1.405       .  A
C1507      C1512   1.407       .  A
C1508      C1509   1.398       .  A
C1508      H1517   1.084       .  S
C1509      C1510   1.408       .  A
C1509      H1518   1.079       .  S
C1510      C1513   1.491       .  S
C1510      C1511   1.405       .  A
C1511      C1512   1.399       .  A
C1511      H1519   1.083       .  S
C1512      H1520   1.080       .  S
C1513      H1521   1.087       .  S
C1513      C1514   1.349       .  D
C1514      H1522   1.082       .  S
C1515      H1523   1.087       .  S
C1515      C1516   1.350       .  D
C1516      H1524   1.083       .  S
C1525      C1533   1.492       .  S
C1525      C1526   1.407       .  A
C1525      C1530   1.407       .  A
C1526      C1527   1.399       .  A
C1526      H1535   1.083       .  S
C1527      C1528   1.406       .  A
C1527      H1536   1.080       .  S
C1528      C1531   1.489       .  S
C1528      C1529   1.406       .  A
C1529      C1530   1.399       .  A
C1529      H1537   1.084       .  S
C1530      H1538   1.080       .  S
C1531      H1539   1.087       .  S
C1531      C1532   1.351       .  D
C1532      H1540   1.083       .  S
C1533      H1541   1.087       .  S
C1533      C1534   1.352       .  D
C1534      H1542   1.083       .  S
C1543      C1551   1.479       .  S
C1543      C1544   1.402       .  A
C1543      C1548   1.405       .  A
C1544      C1545   1.398       .  A
C1544      H1553   1.083       .  S
C1545      C1546   1.406       .  A
C1545      H1554   1.082       .  S
C1546      C1549   1.481       .  S
C1546      C1547   1.403       .  A
C1547      C1548   1.398       .  A
C1547      H1555   1.083       .  S
C1548      H1556   1.083       .  S
C1549      H1557   1.087       .  S
C1549      C1550   1.346       .  D
C1550      H1558   1.086       .  S
C1551      H1559   1.087       .  S
C1551      C1552   1.344       .  D
C1552      H1560   1.087       .  S
C1561      C1569   1.491       .  S
C1561      C1562   1.404       .  A
C1561      C1566   1.410       .  A
C1562      C1563   1.399       .  A
C1562      H1571   1.083       .  S
C1563      C1564   1.407       .  A
C1563      H1572   1.082       .  S
C1564      C1567   1.489       .  S
C1564      C1565   1.402       .  A
C1565      C1566   1.398       .  A
C1565      H1573   1.083       .  S
C1566      H1574   1.080       .  S
C1567      H1575   1.087       .  S
C1567      C1568   1.346       .  D
C1568      H1576   1.085       .  S
C1569      H1577   1.087       .  S
C1569      C1570   1.347       .  D
C1570      H1578   1.083       .  S
C1579      C1587   1.488       .  S
C1579      C1580   1.404       .  A
C1579      C1584   1.407       .  A
C1580      C1581   1.399       .  A
C1580      H1589   1.084       .  S
C1581      C1582   1.408       .  A
C1581      H1590   1.081       .  S
C1582      C1585   1.489       .  S
C1582      C1583   1.404       .  A
C1583      C1584   1.399       .  A
C1583      H1591   1.083       .  S
C1584      H1592   1.081       .  S
C1585      H1593   1.087       .  S
C1585      C1586   1.348       .  D
C1586      H1594   1.084       .  S
C1587      H1595   1.087       .  S
C1587      C1588   1.347       .  D
C1588      H1596   1.085       .  S
C1597      C1605   1.489       .  S
C1597      C1598   1.403       .  A
C1597      C1602   1.409       .  A
C1598      C1599   1.399       .  A
C1598      H1607   1.083       .  S
C1599      C1600   1.409       .  A
C1599      H1608   1.082       .  S
C1600      C1603   1.488       .  S
C1600      C1601   1.402       .  A
C1601      C1602   1.399       .  A
C1601      H1609   1.083       .  S
C1602      H1610   1.081       .  S
C1603      H1611   1.087       .  S
C1603      C1604   1.343       .  D
C1604      H1612   1.086       .  S
C1605      H1613   1.087       .  S
C1605      C1606   1.347       .  D
C1606      H1614   1.085       .  S
C1615      C1623   1.489       .  S
C1615      C1616   1.405       .  A
C1615      C1620   1.407       .  A
C1616      C1617   1.401       .  A
C1616      H1625   1.083       .  S
C1617      C1618   1.406       .  A
C1617      H1626   1.082       .  S
C1618      C1621   1.486       .  S
C1618      C1619   1.404       .  A
C1619      C1620   1.399       .  A
C1619      H1627   1.083       .  S
C1620      H1628   1.082       .  S
C1621      H1629   1.087       .  S
C1621      C1622   1.348       .  D
C1622      H1630   1.086       .  S
C1623      H1631   1.087       .  S
C1623      C1624   1.347       .  D
C1624      H1632   1.086       .  S
C1633      C1641   1.495       .  S
C1633      C1634   1.406       .  A
C1633      C1638   1.409       .  A
C1634      C1635   1.401       .  A
C1634      H1643   1.083       .  S
C1635      C1636   1.407       .  A
C1635      H1644   1.082       .  S
C1636      C1639   1.491       .  S
C1636      C1637   1.404       .  A
C1637      C1638   1.402       .  A
C1637      H1645   1.083       .  S
C1638      H1646   1.081       .  S
C1639      H1647   1.087       .  S
C1639      C1640   1.346       .  D
C1640      H1648   1.086       .  S
C1641      H1649   1.087       .  S
C1641      C1642   1.351       .  D
C1642      H1650   1.084       .  S
C1651      C1659   1.485       .  S
C1651      C1652   1.401       .  A
C1651      C1656   1.409       .  A
C1652      C1653   1.397       .  A
C1652      H1661   1.084       .  S
C1653      C1654   1.409       .  A
C1653      H1662   1.082       .  S
C1654      C1657   1.487       .  S
C1654      C1655   1.402       .  A
C1655      C1656   1.399       .  A
C1655      H1663   1.083       .  S
C1656      H1664   1.082       .  S
C1657      H1665   1.087       .  S
C1657      C1658   1.343       .  D
C1658      H1666   1.086       .  S
C1659      H1667   1.087       .  S
C1659      C1660   1.344       .  D
C1660      H1668   1.086       .  S
C1669      C1677   1.489       .  S
C1669      C1670   1.402       .  A
C1669      C1674   1.409       .  A
C1670      C1671   1.400       .  A
C1670      H1679   1.083       .  S
C1671      C1672   1.409       .  A
C1671      H1680   1.082       .  S
C1672      C1675   1.486       .  S
C1672      C1673   1.401       .  A
C1673      C1674   1.397       .  A
C1673      H1681   1.083       .  S
C1674      H1682   1.082       .  S
C1675      H1683   1.087       .  S
C1675      C1676   1.344       .  D
C1676      H1684   1.086       .  S
C1677      H1685   1.087       .  S
C1677      C1678   1.343       .  D
C1678      H1686   1.086       .  S
C1687      C1695   1.490       .  S
C1687      C1688   1.403       .  A
C1687      C1692   1.410       .  A
C1688      C1689   1.399       .  A
C1688      H1697   1.083       .  S
C1689      C1690   1.408       .  A
C1689      H1698   1.082       .  S
C1690      C1693   1.488       .  S
C1690      C1691   1.403       .  A
C1691      C1692   1.400       .  A
C1691      H1699   1.084       .  S
C1692      H1700   1.082       .  S
C1693      H1701   1.087       .  S
C1693      C1694   1.346       .  D
C1694      H1702   1.086       .  S
C1695      H1703   1.087       .  S
C1695      C1696   1.347       .  D
C1696      H1704   1.085       .  S
C1705      C1713   1.490       .  S
C1705      C1706   1.404       .  A
C1705      C1710   1.410       .  A
C1706      C1707   1.396       .  A
C1706      H1715   1.083       .  S
C1707      C1708   1.404       .  A
C1707      H1716   1.083       .  S
C1708      C1711   1.485       .  S
C1708      C1709   1.403       .  A
C1709      C1710   1.403       .  A
C1709      H1717   1.083       .  S
C1710      H1718   1.081       .  S
C1711      H1719   1.087       .  S
C1711      C1712   1.346       .  D
C1712      H1720   1.087       .  S
C1713      H1721   1.087       .  S
C1713      C1714   1.348       .  D
C1714      H1722   1.084       .  S
C1723      C1731   1.490       .  S
C1723      C1724   1.403       .  A
C1723      C1728   1.410       .  A
C1724      C1725   1.399       .  A
C1724      H1733   1.083       .  S
C1725      C1726   1.408       .  A
C1725      H1734   1.082       .  S
C1726      C1729   1.488       .  S
C1726      C1727   1.403       .  A
C1727      C1728   1.401       .  A
C1727      H1735   1.083       .  S
C1728      H1736   1.082       .  S
C1729      H1737   1.087       .  S
C1729      C1730   1.344       .  D
C1730      H1738   1.086       .  S
C1731      H1739   1.087       .  S
C1731      C1732   1.348       .  D
C1732      H1740   1.085       .  S
C1741      C1749   1.484       .  S
C1741      C1742   1.402       .  A
C1741      C1746   1.405       .  A
C1742      C1743   1.400       .  A
C1742      H1751   1.083       .  S
C1743      C1744   1.410       .  A
C1743      H1752   1.079       .  S
C1744      C1747   1.492       .  S
C1744      C1745   1.405       .  A
C1745      C1746   1.397       .  A
C1745      H1753   1.083       .  S
C1746      H1754   1.082       .  S
C1747      H1755   1.087       .  S
C1747      C1748   1.349       .  D
C1748      H1756   1.083       .  S
C1749      H1757   1.087       .  S
C1749      C1750   1.345       .  D
C1750      H1758   1.086       .  S
C1759      C1767   1.487       .  S
C1759      C1760   1.404       .  A
C1759      C1764   1.405       .  A
C1760      C1761   1.401       .  A
C1760      H1769   1.083       .  S
C1761      C1762   1.408       .  A
C1761      H1770   1.081       .  S
C1762      C1765   1.491       .  S
C1762      C1763   1.406       .  A
C1763      C1764   1.401       .  A
C1763      H1771   1.083       .  S
C1764      H1772   1.083       .  S
C1765      H1773   1.087       .  S
C1765      C1766   1.351       .  D
C1766      H1774   1.085       .  S
C1767      H1775   1.087       .  S
C1767      C1768   1.346       .  D
C1768      H1776   1.086       .  S
C1777      C1785   1.491       .  S
C1777      C1778   1.405       .  A
C1777      C1782   1.408       .  A
C1778      C1779   1.400       .  A
C1778      H1787   1.083       .  S
C1779      C1780   1.408       .  A
C1779      H1788   1.081       .  S
C1780      C1783   1.491       .  S
C1780      C1781   1.404       .  A
C1781      C1782   1.398       .  A
C1781      H1789   1.083       .  S
C1782      H1790   1.080       .  S
C1783      H1791   1.087       .  S
C1783      C1784   1.348       .  D
C1784      H1792   1.084       .  S
C1785      H1793   1.087       .  S
C1785      C1786   1.349       .  D
C1786      H1794   1.084       .  S
C1795      C1803   1.487       .  S
C1795      C1796   1.404       .  A
C1795      C1800   1.406       .  A
C1796      C1797   1.402       .  A
C1796      H1805   1.083       .  S
C1797      C1798   1.409       .  A
C1797      H1806   1.081       .  S
C1798      C1801   1.491       .  S
C1798      C1799   1.404       .  A
C1799      C1800   1.398       .  A
C1799      H1807   1.083       .  S
C1800      H1808   1.082       .  S
C1801      H1809   1.087       .  S
C1801      C1802   1.349       .  D
C1802      H1810   1.085       .  S
C1803      H1811   1.087       .  S
C1803      C1804   1.345       .  D
C1804      H1812   1.086       .  S
C1813      C1821   1.486       .  S
C1813      C1814   1.405       .  A
C1813      C1818   1.406   1_545  A
C1814      C1815   1.398       .  A
C1814      H1823   1.084       .  S
C1815      C1816   1.407       .  A
C1815      H1824   1.080       .  S
C1816      C1819   1.486   1_545  S
C1816      C1817   1.404   1_545  A
C1817      C1818   1.396       .  A
C1817      H1825   1.083   1_455  S
C1818      H1826   1.080   1_455  S
C1819      H1827   1.087       .  S
C1819      C1820   1.348   1_565  D
C1820      H1828   1.084       .  S
C1821      H1829   1.087       .  S
C1821      C1822   1.350   1_545  D
C1822      H1830   1.084       .  S
C1831      C1839   1.488   1_545  S
C1831      C1832   1.404   1_545  A
C1831      C1836   1.407   1_455  A
C1832      C1833   1.398   1_554  A
C1832      H1841   1.083       .  S
C1833      C1834   1.406   1_565  A
C1833      H1842   1.080       .  S
C1834      C1837   1.489       .  S
C1834      C1835   1.406   1_455  A
C1835      C1836   1.400   1_556  A
C1835      H1843   1.084       .  S
C1836      H1844   1.081       .  S
C1837      H1845   1.087       .  S
C1837      C1838   1.351   1_545  D
C1838      H1846   1.084       .  S
C1839      H1847   1.087       .  S
C1839      C1840   1.349   1_565  D
C1840      H1848   1.084       .  S
C1849      C1857   1.487       .  S
C1849      C1850   1.400       .  A
C1849      C1854   1.411       .  A
C1850      C1851   1.395       .  A
C1850      H1859   1.083       .  S
C1851      C1852   1.407       .  A
C1851      H1860   1.082       .  S
C1852      C1855   1.487       .  S
C1852      C1853   1.403       .  A
C1853      C1854   1.403       .  A
C1853      H1861   1.083       .  S
C1854      H1862   1.082       .  S
C1855      H1863   1.087       .  S
C1855      C1856   1.344       .  D
C1856      H1864   1.087       .  S
C1857      H1865   1.087       .  S
C1857      C1858   1.344       .  D
C1858      H1866   1.086       .  S
C1867      C1875   1.487       .  S
C1867      C1868   1.401       .  A
C1867      C1872   1.409       .  A
C1868      C1869   1.397       .  A
C1868      H1877   1.083       .  S
C1869      C1870   1.409       .  A
C1869      H1878   1.081       .  S
C1870      C1873   1.490       .  S
C1870      C1871   1.404       .  A
C1871      C1872   1.401       .  A
C1871      H1879   1.083       .  S
C1872      H1880   1.082       .  S
C1873      H1881   1.087       .  S
C1873      C1874   1.347       .  D
C1874      H1882   1.085       .  S
C1875      H1883   1.087       .  S
C1875      C1876   1.343       .  D
C1876      H1884   1.086       .  S
C1885      C1893   1.485       .  S
C1885      C1886   1.404       .  A
C1885      C1890   1.406       .  A
C1886      C1887   1.399       .  A
C1886      H1895   1.083       .  S
C1887      C1888   1.405       .  A
C1887      H1896   1.082       .  S
C1888      C1891   1.485       .  S
C1888      C1889   1.405       .  A
C1889      C1890   1.400       .  A
C1889      H1897   1.083       .  S
C1890      H1898   1.082       .  S
C1891      H1899   1.088       .  S
C1891      C1892   1.347       .  D
C1892      H1900   1.086       .  S
C1893      H1901   1.087       .  S
C1893      C1894   1.347       .  D
C1894      H1902   1.086       .  S
C1903      C1911   1.491       .  S
C1903      C1904   1.405       .  A
C1903      C1908   1.406       .  A
C1904      C1905   1.403       .  A
C1904      H1913   1.083       .  S
C1905      C1906   1.410       .  A
C1905      H1914   1.081       .  S
C1906      C1909   1.493       .  S
C1906      C1907   1.405       .  A
C1907      C1908   1.399       .  A
C1907      H1915   1.083       .  S
C1908      H1916   1.082       .  S
C1909      H1917   1.087       .  S
C1909      C1910   1.350       .  D
C1910      H1918   1.084       .  S
C1911      H1919   1.087       .  S
C1911      C1912   1.348       .  D
C1912      H1920   1.086       .  S
