geometry optimzed in LAMMPS
_audit_creation_date              2020-12-01 
_audit_creation_method            'lammps2cif' 
_symmetry_space_group_name_H-M    'P1' 
_symmetry_Int_Tables_number       1 
_symmetry_cell_setting            triclinic 
loop_ 
_symmetry_equiv_pos_as_xyz 
  x,y,z 
_cell_length_a                    39.28235139 
_cell_length_b                    39.3258808714322 
_cell_length_c                    37.46552499755911 
_cell_angle_alpha                 89.8598835676505 
_cell_angle_beta                  90.05231084854393 
_cell_angle_gamma                 119.92072564089636 
loop_ 
_atom_site_label 
_atom_site_type_symbol 
_atom_site_fract_x 
_atom_site_fract_y 
_atom_site_fract_z 
_atom_site_charge 
C1          C  0.49804968  0.96841375  0.02108625     0.03300
C2          C  0.46404858  0.97220618  0.02344180     0.03200
C3          C  0.45806976  0.99460807  0.99764848    -0.17300
C4          C  0.48610854  0.01508103  0.97100500     0.03300
C5          C  0.52224079  0.01501911  0.97124431     0.03200
C6          C  0.52712646  0.99067508  0.99573473    -0.17300
H7          H  0.55383762  0.98902507  0.99518902     0.05300
H8          H  0.43145335  0.99644275  0.99844278     0.05300
O9          O  0.49942612  0.71686528  0.28852046    -0.70800
O10         O  0.50157478  0.78287823  0.21389400    -0.71000
O11         O  0.50822204  0.71820919  0.21864280    -0.70900
O12         O  0.49264075  0.78155334  0.28539534    -0.70900
O13         O  0.55577557  0.81855657  0.29141519    -0.70800
O14         O  0.57150572  0.75480616  0.22443987    -0.70900
O15         O  0.56472886  0.81970383  0.22006686    -0.70800
O16         O  0.56251585  0.75367302  0.29566617    -0.71000
V17         V  0.50173874  0.75084029  0.25172794     1.35200
V18         V  0.56245750  0.78607355  0.25776614     1.35200
C19         C  0.53060734  0.72331921  0.30397385     0.78400
C20         C  0.53345860  0.81226317  0.20396455     0.78500
C21         C  0.54234015  0.72498532  0.21107321     0.78400
C22         C  0.52143915  0.81055220  0.30012094     0.78300
O23         O  0.42384457  0.18458199  0.79398698    -0.70800
O24         O  0.42460479  0.25509250  0.72436028    -0.71000
O25         O  0.41769857  0.18359129  0.72205527    -0.70900
O26         O  0.43111029  0.25589261  0.79594215    -0.70900
O27         O  0.49410221  0.28660621  0.78648470    -0.70800
O28         O  0.48078003  0.20644323  0.72191738    -0.70900
O29         O  0.48684459  0.27719913  0.71542765    -0.70800
O30         O  0.48772768  0.21519363  0.79267592    -0.71000
V31         V  0.42541678  0.22024599  0.75897628     1.35200
V32         V  0.48621269  0.24592540  0.75427684     1.35200
C33         C  0.45577783  0.18850041  0.80559446     0.78400
C34         C  0.45566152  0.27728596  0.70729988     0.78500
C35         C  0.44713124  0.18220342  0.71011857     0.78400
C36         C  0.46494042  0.28416683  0.80306138     0.78300
O37         O  0.74097282  0.18348987  0.71453150    -0.70800
O38         O  0.81591489  0.24791720  0.78483411    -0.71000
O39         O  0.74281326  0.18436473  0.78641553    -0.70900
O40         O  0.81396790  0.24675272  0.71289070    -0.70900
O41         O  0.78824559  0.28450838  0.71292227    -0.70800
O42         O  0.71811278  0.22298717  0.78671520    -0.70900
O43         O  0.79015927  0.28563739  0.78506184    -0.70800
O44         O  0.71641586  0.22224956  0.71508307    -0.71000
V45         V  0.77798415  0.21634939  0.74970101     1.35200
V46         V  0.75383596  0.25311682  0.74999172     1.35200
C47         C  0.71612543  0.19229717  0.70272056     0.78400
C48         C  0.81535133  0.27758576  0.79713380     0.78500
C49         C  0.71824029  0.19308300  0.79898237     0.78400
C50         C  0.81254887  0.27574226  0.69989403     0.78300
O51         O  0.20946190  0.72602447  0.21806499    -0.70800
O52         O  0.27483014  0.80218903  0.28617464    -0.71000
O53         O  0.21184228  0.72977027  0.28965075    -0.70900
O54         O  0.27291775  0.79865771  0.21516716    -0.70900
O55         O  0.23734150  0.82684088  0.21671497    -0.70800
O56         O  0.17024998  0.75078622  0.28511841    -0.70900
O57         O  0.23347547  0.82363474  0.28900060    -0.70800
O58         O  0.17467099  0.75485895  0.21337342    -0.71000
V59         V  0.24148468  0.76458755  0.25221054     1.35200
V60         V  0.20464346  0.78862667  0.25117360     1.35200
C61         C  0.18162160  0.72826666  0.20343265     0.78400
C62         C  0.26484863  0.82532355  0.29963730     0.78500
C63         C  0.18012632  0.72776784  0.29935573     0.78400
C64         C  0.26610849  0.82495220  0.20382250     0.78300
C65         C  0.98394718  0.47151304  0.97307417     0.03300
C66         C  0.98831195  0.50960163  0.97201166     0.03200
C67         C  0.00975483  0.53647951  0.99911607    -0.17300
C68         C  0.02940083  0.52753715  0.02562706     0.03300
C69         C  0.02947102  0.49154677  0.02326323     0.03200
C70         C  0.00570027  0.46352457  0.99791755    -0.17300
H71         H  0.00408026  0.43518395  0.99753783     0.05300
H72         H  0.01097918  0.56459576  0.99964139     0.05300
C73         C  0.96559886  0.44927587  0.50570336     0.03300
C74         C  0.97097374  0.48734050  0.51116274     0.03200
C75         C  0.99399945  0.51745931  0.48701715    -0.17300
C76         C  0.01334703  0.51109643  0.45872343     0.03300
C77         C  0.01106214  0.47415646  0.45518265     0.03200
C78         C  0.98637469  0.44330325  0.47821266    -0.17300
H79         H  0.98363304  0.41465144  0.47503527     0.05300
H80         H  0.99716128  0.54627655  0.49036587     0.05300
O81         O  0.23831670  0.50976487  0.20478635    -0.70800
O82         O  0.29616154  0.50433246  0.28341238    -0.71000
O83         O  0.30432025  0.50689112  0.21171117    -0.70900
O84         O  0.23036470  0.50725696  0.27622560    -0.70900
O85         O  0.19626052  0.44357866  0.27430348    -0.70800
O86         O  0.27102684  0.44317895  0.20990509    -0.70900
O87         O  0.26296700  0.44061884  0.28124493    -0.70800
O88         O  0.20419208  0.44606896  0.20314670    -0.71000
V89         V  0.26666111  0.50578552  0.24397221     1.35200
V90         V  0.23428793  0.44456621  0.24215650     1.35200
C91         C  0.21128604  0.47888381  0.19075453     0.78400
C92         C  0.28902127  0.47159420  0.29601387     0.78500
C93         C  0.30008654  0.47509074  0.19950212     0.78400
C94         C  0.20097187  0.47561111  0.28648425     0.78300
O95         O  0.75026146  0.55209299  0.71151524    -0.70800
O96         O  0.82609486  0.55615846  0.77688964    -0.71000
O97         O  0.81983367  0.55530325  0.70527403    -0.70900
O98         O  0.75672009  0.55286521  0.78315753    -0.70900
O99         O  0.73077683  0.48950720  0.78609682    -0.70800
O100        O  0.78763375  0.49149276  0.70387335    -0.70900
O101        O  0.79944906  0.49271027  0.77370418    -0.70800
O102        O  0.71812214  0.48845901  0.71583271    -0.71000
V103        V  0.78766084  0.55293863  0.74415535     1.35200
V104        V  0.75943509  0.49174372  0.74474480     1.35200
C105        C  0.72063344  0.51958618  0.70353327     0.78400
C106        C  0.82606885  0.52512084  0.78572090     0.78500
C107        C  0.81458051  0.52368500  0.69165126     0.78400
C108        C  0.73399953  0.52075549  0.79861005     0.78300
C109        C  0.54231321  0.54455704  0.03520714     0.03300
C110        C  0.50402329  0.51212252  0.03034646     0.03200
C111        C  0.49730632  0.48478627  0.00336668    -0.17300
C112        C  0.52760172  0.48940813  0.98040057     0.03300
C113        C  0.56616283  0.52128725  0.98615185     0.03200
C114        C  0.57276076  0.54858127  0.01304902    -0.17300
H115        H  0.60218893  0.57303708  0.01715399     0.05300
H116        H  0.46769829  0.46073650  0.99911496     0.05300
C117        C  0.46653984  0.50100068  0.48798805     0.03300
C118        C  0.50299988  0.53658511  0.48810258     0.03200
C119        C  0.53227935  0.54116495  0.51220782    -0.17300
C120        C  0.52728910  0.51040383  0.53465430     0.03300
C121        C  0.49220506  0.47358924  0.53180209     0.03200
C122        C  0.46197337  0.46979058  0.50937476    -0.17300
H123        H  0.43462908  0.44204386  0.50836711     0.05300
H124        H  0.55957073  0.56889634  0.51304325     0.05300
C125        C  0.49585944  0.98008373  0.47722572     0.03300
C126        C  0.46131211  0.98311790  0.47618495     0.03200
C127        C  0.45416657  0.00308055  0.50372453    -0.17300
C128        C  0.48135199  0.02166071  0.53145349     0.03300
C129        C  0.51739828  0.02151587  0.53062069     0.03200
C130        C  0.52367374  0.00004455  0.50411839    -0.17300
H131        H  0.55076278  0.99906779  0.50435691     0.05300
H132        H  0.42711403  0.00414223  0.50355166     0.05300
C133        C  0.65124705  0.54876451  0.92140328     0.16900
C134        C  0.67848884  0.56587064  0.89363489    -0.32100
C135        C  0.68815004  0.54143837  0.87424167     0.21300
C136        C  0.67218841  0.50202070  0.88272425     0.03500
C137        C  0.64624227  0.48533693  0.91139009    -0.21800
C138        C  0.63592664  0.50952216  0.93024607     0.12700
S139        S  0.63065654  0.57157716  0.94400030    -0.05500
C140        C  0.60015551  0.52736186  0.96453236    -0.09000
C141        C  0.60762135  0.49745763  0.95599122    -0.25600
S142        S  0.68490757  0.47650521  0.85430605    -0.02800
C143        C  0.71210563  0.51937876  0.83073329    -0.16200
C144        C  0.71147956  0.55170715  0.84451330    -0.14200
H145        H  0.68995837  0.59629749  0.88621847     0.21200
H146        H  0.63307718  0.45439141  0.91752980     0.17200
H147        H  0.59087226  0.46762556  0.96579970     0.19700
H148        H  0.72648727  0.58084825  0.83293403     0.13100
C149        C  0.61978465  0.53539052  0.58995395     0.16900
C150        C  0.65799199  0.54775368  0.60195840    -0.32100
C151        C  0.66208322  0.53275744  0.63467079     0.21300
C152        C  0.62960260  0.50646292  0.65441035     0.03500
C153        C  0.59151061  0.49551907  0.64314619    -0.21800
C154        C  0.58747792  0.51073062  0.61057809     0.12700
S155        S  0.60829758  0.54684880  0.54944610    -0.05500
C156        C  0.55926243  0.51791653  0.56029303    -0.09000
C157        C  0.55286009  0.50205469  0.59443992    -0.25600
S158        S  0.64056902  0.48878016  0.69166827    -0.02800
C159        C  0.68939665  0.51805115  0.68109477    -0.16200
C160        C  0.69664164  0.54017387  0.65032324    -0.14200
H161        H  0.68333605  0.56724264  0.58603803     0.21200
H162        H  0.56609581  0.47512815  0.65853279     0.17200
H163        H  0.52436214  0.48395330  0.60652878     0.19700
H164        H  0.72556079  0.55975829  0.63956270     0.13100
C165        C  0.37009241  0.46418203  0.13527988     0.16900
C166        C  0.39334851  0.45249587  0.11637864    -0.32100
C167        C  0.42026590  0.47906668  0.09152189     0.21300
C168        C  0.42320873  0.51521137  0.08517820     0.03500
C169        C  0.40012183  0.52690195  0.10410892    -0.21800
C170        C  0.37398482  0.50081045  0.12952754     0.12700
S171        S  0.33613900  0.43675590  0.16711780    -0.05500
C172        C  0.32810215  0.47558935  0.17328880    -0.09000
C173        C  0.35025521  0.50763934  0.15146506    -0.25600
S174        S  0.45791802  0.54361298  0.05452777    -0.02800
C175        C  0.47015662  0.50729840  0.05152765    -0.16200
C176        C  0.44704208  0.47422184  0.07199436    -0.14200
H177        H  0.39107347  0.42428919  0.12128402     0.21200
H178        H  0.40297797  0.55543274  0.09972769     0.17200
H179        H  0.34888883  0.53446967  0.15153225     0.19700
H180        H  0.45079010  0.44877940  0.07356979     0.13100
C181        C  0.34435376  0.45540978  0.37215750     0.16900
C182        C  0.36510598  0.44305927  0.39398042    -0.32100
C183        C  0.38742562  0.46795679  0.42185457     0.21300
C184        C  0.38770237  0.50273504  0.42873426     0.03500
C185        C  0.36665986  0.51489818  0.40714470    -0.21800
C186        C  0.34579867  0.49087950  0.37831017     0.12700
S187        S  0.31803338  0.43096280  0.33527022    -0.05500
C188        C  0.31032206  0.46971874  0.32737307    -0.09000
C189        C  0.32650836  0.49937117  0.35251931    -0.25600
S190        S  0.41829037  0.52988305  0.46246213    -0.02800
C191        C  0.43303225  0.49536014  0.46561677    -0.16200
C192        C  0.41308913  0.46335011  0.44324251    -0.14200
H193        H  0.36525403  0.41611376  0.38850545     0.21200
H194        H  0.36796296  0.54271012  0.41163116     0.17200
H195        H  0.32461019  0.52590634  0.35171562     0.19700
H196        H  0.41897611  0.43930244  0.44111773     0.13100
C197        C  0.14342070  0.49232807  0.35970165     0.16900
C198        C  0.13164626  0.50717718  0.38793687    -0.32100
C199        C  0.09274985  0.48510593  0.39949140     0.21300
C200        C  0.06636110  0.44978706  0.38371255     0.03500
C201        C  0.07840111  0.43440003  0.35576066    -0.21800
C202        C  0.11762816  0.45651432  0.34422960     0.12700
S203        S  0.18912052  0.51575068  0.34135258    -0.05500
C204        C  0.17390827  0.47663364  0.31284047    -0.09000
C205        C  0.13523093  0.44705655  0.31738955    -0.25600
S206        S  0.01985793  0.42882503  0.40111216    -0.02800
C207        C  0.03646459  0.46848374  0.42948746    -0.16200
C208        C  0.07609098  0.49541475  0.42610774    -0.14200
H209        H  0.15183412  0.53505144  0.40010710     0.21200
H210        H  0.05808610  0.40673487  0.34335114     0.17200
H211        H  0.12075549  0.42047032  0.30166686     0.19700
H212        H  0.09199911  0.52151387  0.44220766     0.13100
C213        C  0.92523524  0.49944192  0.59754980     0.16900
C214        C  0.90855474  0.49464747  0.63147621    -0.32100
C215        C  0.88329852  0.50966480  0.63700072     0.21300
C216        C  0.87611146  0.52993508  0.61043367     0.03500
C217        C  0.89276395  0.53463283  0.57644720    -0.21800
C218        C  0.91687212  0.51829978  0.57051067     0.12700
S219        S  0.95455774  0.48113660  0.58491707    -0.05500
C220        C  0.95328638  0.49652440  0.54199225    -0.09000
C221        C  0.93311818  0.51694632  0.53859000    -0.25600
S222        S  0.84472772  0.54613681  0.62268027    -0.02800
C223        C  0.84028453  0.52404316  0.66337344    -0.16200
C224        C  0.86240556  0.50581882  0.66737127    -0.14200
H225        H  0.91409274  0.47888444  0.65232583     0.21200
H226        H  0.88631465  0.54937530  0.55528636     0.17200
H227        H  0.92904651  0.52857528  0.51372971     0.19700
H228        H  0.86307467  0.49056992  0.69125838     0.13100
C229        C  0.08519141  0.45993249  0.08696094     0.16900
C230        C  0.09640341  0.44193168  0.11311500    -0.32100
C231        C  0.13487507  0.46319172  0.12628138     0.21300
C232        C  0.16106812  0.50057594  0.11384932     0.03500
C233        C  0.15019807  0.51809784  0.08705523    -0.21800
C234        C  0.11173109  0.49697480  0.07408661     0.12700
S235        S  0.03894870  0.44065161  0.06973761    -0.05500
C236        C  0.05558392  0.48330253  0.04546197    -0.09000
C237        C  0.09513929  0.51015206  0.04969309    -0.25600
S238        S  0.20520816  0.52291280  0.13528035    -0.02800
C239        C  0.18831143  0.48133913  0.16109222    -0.16200
C240        C  0.15062587  0.45173278  0.15313006    -0.14200
H241        H  0.07572371  0.41319177  0.12354458     0.21200
H242        H  0.17041271  0.54743260  0.07757444     0.17200
H243        H  0.11043109  0.53858556  0.03679179     0.19700
H244        H  0.13504446  0.42404784  0.16725667     0.13100
C245        C  0.90365680  0.51697827  0.84017568     0.16900
C246        C  0.93020745  0.50661659  0.85428439    -0.32100
C247        C  0.94461984  0.51982946  0.88867936     0.21300
C248        C  0.93327114  0.54240722  0.90819079     0.03500
C249        C  0.90826937  0.55448370  0.89336408    -0.21800
C250        C  0.89366265  0.54110821  0.85898918     0.12700
S251        S  0.87917415  0.49985894  0.80084354    -0.05500
C252        C  0.85621200  0.52644884  0.80938941    -0.09000
C253        C  0.86690489  0.54731908  0.84100088    -0.25600
S254        S  0.94925729  0.55021589  0.95134829    -0.02800
C255        C  0.97077797  0.52200184  0.94320104    -0.16200
C256        C  0.96763382  0.50966361  0.90806237    -0.14200
H257        H  0.93776724  0.48748235  0.83983842     0.21200
H258        H  0.89909817  0.57190023  0.90857388     0.17200
H259        H  0.85443249  0.56457894  0.85094726     0.19700
H260        H  0.97940972  0.49196678  0.89772851     0.13100
C261        C  0.39899224  0.94179082  0.39120584     0.16900
C262        C  0.38572532  0.92833371  0.35657009    -0.32100
C263        C  0.34612734  0.89970279  0.35233359     0.21300
C264        C  0.32046073  0.88599988  0.38109529     0.03500
C265        C  0.33375047  0.89952897  0.41575559    -0.21800
C266        C  0.37367260  0.92724515  0.42014834     0.12700
S267        S  0.44654551  0.97425575  0.40216913    -0.05500
C268        C  0.43266588  0.96645237  0.44648381    -0.09000
C269        C  0.39279557  0.94156231  0.45194798    -0.25600
S270        S  0.27376262  0.85037889  0.37042518    -0.02800
C271        C  0.28942517  0.85328709  0.32708966    -0.16200
C272        C  0.32850791  0.88072261  0.32128997    -0.14200
H273        H  0.40570656  0.93873959  0.33406674     0.21200
H274        H  0.31412681  0.88799170  0.43844207     0.17200
H275        H  0.37892774  0.93295319  0.47791003     0.19700
H276        H  0.34342634  0.88570522  0.29587761     0.13100
C277        C  0.12381360  0.66860260  0.12223608     0.16900
C278        C  0.10724353  0.65542622  0.08837721    -0.32100
C279        C  0.08473150  0.61477055  0.08307326     0.21300
C280        C  0.07786732  0.58851273  0.11058880     0.03500
C281        C  0.09495284  0.60160571  0.14425406    -0.21800
C282        C  0.11856964  0.64216659  0.14920369     0.12700
S283        S  0.15203866  0.71670631  0.13412497    -0.05500
C284        C  0.15800192  0.70086900  0.17527525    -0.09000
C285        C  0.13873642  0.66056520  0.17959874    -0.25600
S286        S  0.04896351  0.54055290  0.09906621    -0.02800
C287        C  0.04868169  0.55561413  0.05569344    -0.16200
C288        C  0.06811109  0.59614645  0.05156219    -0.14200
H289        H  0.11214066  0.67593879  0.06697997     0.21200
H290        H  0.09047414  0.58105252  0.16549785     0.17200
H291        H  0.13903215  0.64564334  0.20383670     0.19700
H292        H  0.07115871  0.61127893  0.02656614     0.13100
C293        C  0.05999445  0.58569512  0.38212873     0.16900
C294        C  0.06963189  0.60616919  0.34958558    -0.32100
C295        C  0.10455246  0.64252012  0.34804508     0.21300
C296        C  0.12910722  0.65751992  0.37744719     0.03500
C297        C  0.11906968  0.63743175  0.41015376    -0.21800
C298        C  0.08387343  0.60141466  0.41184469     0.12700
S299        S  0.01977357  0.54047531  0.38917625    -0.05500
C300        C  0.03493520  0.54323252  0.43275701    -0.09000
C301        C  0.06924322  0.57746203  0.44117647    -0.25600
S302        S  0.17153701  0.70062119  0.36946448    -0.02800
C303        C  0.15547401  0.69900157  0.32643993    -0.16200
C304        C  0.11937382  0.66654617  0.31871917    -0.14200
H305        H  0.05095000  0.59410053  0.32637804     0.21200
H306        H  0.13808915  0.64916582  0.43319056     0.17200
H307        H  0.08324734  0.58385126  0.46711756     0.19700
H308        H  0.10546289  0.66023780  0.29272558     0.13100
C309        C  0.63839035  0.14426329  0.62966049     0.16900
C310        C  0.60956053  0.13550106  0.60371329    -0.32100
C311        C  0.59157864  0.09800769  0.58861345     0.21300
C312        C  0.60175130  0.07032766  0.59881318     0.03500
C313        C  0.63110774  0.07931057  0.62446046    -0.21800
C314        C  0.64917490  0.11694213  0.63962823     0.12700
S315        S  0.66228078  0.18759319  0.65200802    -0.05500
C316        C  0.68747378  0.16906553  0.67496108    -0.09000
C317        C  0.67775183  0.13119594  0.66551736    -0.25600
S318        S  0.57516294  0.02598726  0.57811912    -0.02800
C319        C  0.54981294  0.04492736  0.55587656    -0.16200
C320        C  0.56232514  0.08386254  0.56362523    -0.14200
H321        H  0.60110053  0.15680769  0.59600150     0.21200
H322        H  0.63913206  0.05779091  0.63255615     0.17200
H323        H  0.69028580  0.11479108  0.67742012     0.19700
H324        H  0.55012216  0.10070957  0.55202982     0.13100
C325        C  0.88759835  0.33184636  0.62553158     0.16900
C326        C  0.92087892  0.35115226  0.60350949    -0.32100
C327        C  0.91889383  0.37253243  0.57423035     0.21300
C328        C  0.88492629  0.37376443  0.56675178     0.03500
C329        C  0.85174688  0.35449690  0.58870221    -0.21800
C330        C  0.85413470  0.33412170  0.61847117     0.12700
S331        S  0.88420107  0.30523381  0.66296898    -0.05500
C332        C  0.83772443  0.29824583  0.66964331    -0.09000
C333        C  0.82563591  0.31528970  0.64386964    -0.25600
S334        S  0.88892394  0.40313722  0.53155661    -0.02800
C335        C  0.93754310  0.41556870  0.52782786    -0.16200
C336        C  0.94917067  0.39619033  0.55161875    -0.14200
H337        H  0.94747533  0.35042858  0.60949127     0.21200
H338        H  0.82562930  0.35636910  0.58345180     0.17200
H339        H  0.79731049  0.31369338  0.64360617     0.19700
H340        H  0.97888608  0.40144579  0.55396723     0.13100
C341        C  0.89637586  0.34147090  0.86433383     0.16900
C342        C  0.93140307  0.36334628  0.88365140    -0.32100
C343        C  0.93256274  0.39019087  0.90907170     0.21300
C344        C  0.90002985  0.39430443  0.91546875     0.03500
C345        C  0.86527404  0.37267310  0.89615192    -0.21800
C346        C  0.86443218  0.34666308  0.87027521     0.12700
S347        S  0.88885239  0.30815944  0.83146263    -0.05500
C348        C  0.84275343  0.30236957  0.82515917    -0.09000
C349        C  0.83383321  0.32459942  0.84780492    -0.25600
S350        S  0.90697729  0.42839396  0.94688854    -0.02800
C351        C  0.95506044  0.43901420  0.95034704    -0.13200
C352        C  0.96431518  0.41569977  0.92929189    -0.14200
H353        H  0.95679232  0.36013893  0.87863088     0.21200
H354        H  0.84019093  0.37654362  0.90060134     0.17200
H355        H  0.80638248  0.32482979  0.84762435     0.19700
H356        H  0.99307559  0.41835755  0.92789271     0.13100
C357        C  0.44093178  0.12126537  0.62811546     0.16900
C358        C  0.44017491  0.10770477  0.59328361    -0.32100
C359        C  0.45244561  0.08001026  0.58838075     0.21300
C360        C  0.46388478  0.06567750  0.61704407     0.03500
C361        C  0.46472676  0.07925919  0.65180368    -0.21800
C362        C  0.45356830  0.10773936  0.65655048     0.12700
S363        S  0.42957621  0.15660854  0.63943560    -0.05500
C364        C  0.44300402  0.15379346  0.68262883    -0.09000
C365        C  0.45520680  0.12661856  0.68783363    -0.25600
S366        S  0.47842303  0.03286476  0.60562832    -0.02800
C367        C  0.47110949  0.03993299  0.56136587    -0.16200
C368        C  0.45628483  0.06515463  0.55636789    -0.14200
H369        H  0.43145106  0.11905652  0.57086433     0.21200
H370        H  0.47472925  0.06888846  0.67404689     0.17200
H371        H  0.46576871  0.12177644  0.71298392     0.19700
H372        H  0.45014188  0.07337573  0.53057398     0.13100
C373        C  0.47186099  0.34723654  0.88358234     0.16900
C374        C  0.46989976  0.36134520  0.91739792    -0.32100
C375        C  0.49087120  0.40205030  0.92271106     0.21300
C376        C  0.51194749  0.42769022  0.89529853     0.03500
C377        C  0.51457992  0.41357536  0.86163324    -0.21800
C378        C  0.49448502  0.37275343  0.85661359     0.12700
S379        S  0.44836122  0.29885139  0.87183658    -0.05500
C380        C  0.47032319  0.31297618  0.83060134    -0.09000
C381        C  0.49425696  0.35314700  0.82624060    -0.25600
S382        S  0.53424750  0.47603101  0.90695772    -0.02800
C383        C  0.51758208  0.46148474  0.95011540    -0.16200
C384        C  0.49394934  0.42120409  0.95413014    -0.14200
H385        H  0.45305497  0.34141990  0.93875320     0.21200
H386        H  0.53182494  0.43350222  0.84042085     0.17200
H387        H  0.51030260  0.36717576  0.80207407     0.19700
H388        H  0.48062153  0.40661144  0.97903790     0.13100
C389        C  0.44401002  0.34332064  0.63937667     0.16900
C390        C  0.43302054  0.36709557  0.62058647    -0.32100
C391        C  0.45796712  0.39061934  0.59323207     0.21300
C392        C  0.49169940  0.38964563  0.58411438     0.03500
C393        C  0.50257030  0.36567805  0.60277206    -0.21800
C394        C  0.47828234  0.34311193  0.63091194     0.12700
S395        S  0.41890345  0.31436715  0.67481039    -0.05500
C396        C  0.45553370  0.30271429  0.67878834    -0.09000
C397        C  0.48517418  0.31997047  0.65362312    -0.25600
S398        S  0.51904329  0.42185854  0.55130234    -0.02800
C399        C  0.48592663  0.43852969  0.55167425    -0.16200
C400        C  0.45425052  0.41832045  0.57434601    -0.14200
H401        H  0.40692309  0.36823512  0.62778167     0.21200
H402        H  0.52945181  0.36566824  0.59647207     0.17200
H403        H  0.51053257  0.31604711  0.65223930     0.19700
H404        H  0.43108966  0.42525522  0.57835655     0.13100
C405        C  0.48970973  0.85933837  0.37146240     0.16900
C406        C  0.46926985  0.86876080  0.39657802    -0.32100
C407        C  0.49028163  0.90438777  0.41495921     0.21300
C408        C  0.52983937  0.92966732  0.40852237     0.03500
C409        C  0.55048643  0.91994079  0.38381367    -0.21800
C410        C  0.52949092  0.88418729  0.36549636     0.12700
S411        S  0.46921930  0.81793496  0.34588088    -0.05500
C412        C  0.51479753  0.83385450  0.32717969    -0.09000
C413        C  0.54415359  0.86956277  0.34026319    -0.25600
S414        S  0.54943181  0.97224288  0.43250884    -0.02800
C415        C  0.50369793  0.95607234  0.45124864    -0.16200
C416        C  0.47537711  0.91890285  0.43994912    -0.14200
H417        H  0.43824101  0.84934858  0.40132891     0.21200
H418        H  0.58143715  0.93954198  0.37883169     0.17200
H419        H  0.57450463  0.88412780  0.33162713     0.19700
H420        H  0.44522084  0.90351073  0.44908054     0.13100
C421        C  0.56668403  0.63409273  0.09354601     0.16900
C422        C  0.57589365  0.67130534  0.10606416    -0.32100
C423        C  0.56295350  0.67361622  0.14038447     0.21300
C424        C  0.54206901  0.64034251  0.16134697     0.03500
C425        C  0.53403477  0.60339383  0.14929360    -0.21800
C426        C  0.54662272  0.60106459  0.11490130     0.12700
S427        S  0.57568573  0.62442818  0.05131447    -0.05500
C428        C  0.55143685  0.57529075  0.06233799    -0.09000
C429        C  0.53870655  0.56735203  0.09746311    -0.25600
S430        S  0.52543383  0.64842564  0.20059863    -0.02800
C431        C  0.54725265  0.69715901  0.18891399    -0.16200
C432        C  0.56660066  0.70663618  0.15642532    -0.14200
H433        H  0.59107314  0.69705728  0.08927300     0.21200
H434        H  0.51724582  0.57736103  0.16542157     0.17200
H435        H  0.52261672  0.53826754  0.10902076     0.19700
H436        H  0.58084840  0.73561969  0.14453647     0.13100
C437        C  0.53190472  0.62815589  0.43042867     0.16900
C438        C  0.54438113  0.66592228  0.41707001    -0.32100
C439        C  0.53632459  0.66919091  0.38112702     0.21300
C440        C  0.51663317  0.63627794  0.35961901     0.03500
C441        C  0.50537331  0.59881436  0.37263869    -0.21800
C442        C  0.51348812  0.59561565  0.40841470     0.12700
S443        S  0.53609946  0.61733106  0.47380322    -0.05500
C444        C  0.51246233  0.56843751  0.46203290    -0.09000
C445        C  0.50334140  0.56150323  0.42609540    -0.25600
S446        S  0.50631416  0.64557580  0.31785547    -0.02800
C447        C  0.52942284  0.69438071  0.32913777    -0.16200
C448        C  0.54448336  0.70300760  0.36341100    -0.14200
H449        H  0.55878355  0.69145614  0.43412491     0.21200
H450        H  0.48995163  0.57313296  0.35588101     0.17200
H451        H  0.48903806  0.53284165  0.41369142     0.19700
H452        H  0.55907697  0.73205567  0.37505732     0.13100
C453        C  0.64052914  0.14210731  0.87223433     0.16900
C454        C  0.61099958  0.13168528  0.89788206    -0.32100
C455        C  0.59560235  0.09473739  0.91406692     0.21300
C456        C  0.60876546  0.06911284  0.90506162     0.03500
C457        C  0.63898813  0.07988414  0.87990614    -0.21800
C458        C  0.65452406  0.11699022  0.86372050     0.12700
S459        S  0.66159543  0.18490459  0.84856265    -0.05500
C460        C  0.69009947  0.16926337  0.82713514    -0.09000
C461        C  0.68332117  0.13259072  0.83798553    -0.25600
S462        S  0.58424150  0.02464399  0.92620501    -0.02800
C463        C  0.55554050  0.04057454  0.94708811    -0.16200
C464        C  0.56601060  0.07905351  0.93881509    -0.14200
H465        H  0.60001719  0.15123100  0.90447445     0.21200
H466        H  0.64939692  0.06001825  0.87281614     0.17200
H467        H  0.69807202  0.11789556  0.82718545     0.19700
H468        H  0.55202876  0.09451022  0.94962009     0.13100
C469        C  0.45315398  0.12596267  0.88464297     0.16900
C470        C  0.45143156  0.10950624  0.91827348    -0.32100
C471        C  0.46115085  0.07973916  0.92032572     0.21300
C472        C  0.47107868  0.06621256  0.89014105     0.03500
C473        C  0.47285333  0.08266342  0.85658681    -0.21800
C474        C  0.46422163  0.11311072  0.85468800     0.12700
S475        S  0.44367052  0.16321943  0.87649210    -0.05500
C476        C  0.45579412  0.16185491  0.83265085    -0.09000
C477        C  0.46612017  0.13391847  0.82477391    -0.25600
S478        S  0.48278880  0.03062449  0.89819612    -0.02800
C479        C  0.47654206  0.03562538  0.94305463    -0.16200
C480        C  0.46390540  0.06199713  0.95081197    -0.14200
H481        H  0.44374864  0.12004796  0.94189643     0.21200
H482        H  0.48151584  0.07280833  0.83311288     0.17200
H483        H  0.47453665  0.12915603  0.79853717     0.19700
H484        H  0.45887033  0.06913440  0.97747825     0.13100
C485        C  0.49525030  0.88721413  0.08041287     0.16900
C486        C  0.48348860  0.85348215  0.10112061    -0.32100
C487        C  0.50944794  0.85479070  0.12746204     0.21300
C488        C  0.54600067  0.88780681  0.13242489     0.03500
C489        C  0.55786439  0.92157386  0.11156670    -0.21800
C490        C  0.53143132  0.92061926  0.08578413     0.12700
S491        S  0.46676090  0.89217744  0.04882146    -0.05500
C492        C  0.50317646  0.94047072  0.04391160    -0.09000
C493        C  0.53631963  0.95125390  0.06460004    -0.25600
S494        S  0.57281012  0.88349337  0.16632180    -0.02800
C495        C  0.53386066  0.83715392  0.17440317    -0.16200
C496        C  0.50228309  0.82571681  0.15151234    -0.14200
H497        H  0.45489131  0.82771229  0.09752733     0.21200
H498        H  0.58598234  0.94775097  0.11588683     0.17200
H499        H  0.56176848  0.98043597  0.06530014     0.19700
H500        H  0.47527791  0.79776223  0.15270498     0.13100
C501        C  0.32287655  0.88560305  0.12231264     0.16900
C502        C  0.33577622  0.90007633  0.08765758    -0.32100
C503        C  0.37653009  0.92203701  0.08172709     0.21300
C504        C  0.40303720  0.93035802  0.10934477     0.03500
C505        C  0.39022002  0.91582819  0.14377994    -0.21800
C506        C  0.34972180  0.89279392  0.14940519     0.12700
S507        S  0.27490022  0.85611171  0.13483731    -0.05500
C508        C  0.29163554  0.85255207  0.17642353    -0.09000
C509        C  0.33198691  0.87359296  0.18033301    -0.25600
S510        S  0.45105723  0.95718167  0.09711906    -0.02800
C511        C  0.43574533  0.95507937  0.05358470    -0.16200
C512        C  0.39515934  0.93633255  0.04958401    -0.14200
H513        H  0.31504940  0.89351152  0.06609085     0.21200
H514        H  0.41100284  0.92127481  0.16505214     0.17200
H515        H  0.34755495  0.87385593  0.20430703     0.19700
H516        H  0.38011973  0.93221944  0.02436011     0.13100
loop_ 
_geom_bond_atom_site_label_1 
_geom_bond_atom_site_label_2 
_geom_bond_distance 
_geom_bond_site_symmetry_2 
_ccdc_geom_bond_type 
C1            C2   1.419       .  A
C1            C6   1.405   1_554  A
C1          C492   1.482       .  S
C2            C3   1.402   1_554  A
C2          C511   1.489       .  S
C3            C4   1.404   1_565  A
C3            H8   1.084       .  S
C4            C5   1.421       .  A
C4          C479   1.479       .  S
C5            C6   1.405   1_545  A
C5          C463   1.492       .  S
C6            H7   1.083       .  S
O9           V17   1.888       .  S
O9           C19   1.261       .  A
O10          V17   1.896       .  S
O10          C20   1.264       .  A
O11          V17   1.893       .  S
O11          C21   1.262       .  A
O12          V17   1.902       .  S
O12          C22   1.265       .  A
O13          V18   1.906       .  S
O13          C22   1.266       .  A
O14          V18   1.908       .  S
O14          C21   1.265       .  A
O15          V18   1.904       .  S
O15          C20   1.265       .  A
O16          V18   1.906       .  S
O16          C19   1.265       .  A
V17          V18   2.089       .  T
C19         C447   1.459       .  S
C20         C495   1.471       .  S
C21         C431   1.463       .  S
C22         C412   1.476       .  S
O23          V31   1.896       .  S
O23          C33   1.262       .  A
O24          V31   1.896       .  S
O24          C34   1.263       .  A
O25          V31   1.912       .  S
O25          C35   1.266       .  A
O26          V31   1.905       .  S
O26          C36   1.265       .  A
O27          V32   1.904       .  S
O27          C36   1.264       .  A
O28          V32   1.899       .  S
O28          C35   1.263       .  A
O29          V32   1.895       .  S
O29          C34   1.264       .  A
O30          V32   1.897       .  S
O30          C33   1.263       .  A
V31          V32   2.085       .  T
C33         C476   1.456       .  S
C34         C396   1.463       .  S
C35         C364   1.470       .  S
C36         C380   1.469       .  S
O37          V45   1.911       .  S
O37          C47   1.267       .  A
O38          V45   1.911       .  S
O38          C48   1.266       .  A
O39          V45   1.909       .  S
O39          C49   1.266       .  A
O40          V45   1.908       .  S
O40          C50   1.265       .  A
O41          V46   1.900       .  S
O41          C50   1.264       .  A
O42          V46   1.898       .  S
O42          C49   1.264       .  A
O43          V46   1.893       .  S
O43          C48   1.263       .  A
O44          V46   1.889       .  S
O44          C47   1.261       .  A
V45          V46   2.088       .  T
C47         C316   1.470       .  S
C48         C348   1.472       .  S
C49         C460   1.475       .  S
C50         C332   1.473       .  S
O51          V59   1.903       .  S
O51          C61   1.265       .  A
O52          V59   1.896       .  S
O52          C62   1.263       .  A
O53          V59   1.898       .  S
O53          C63   1.262       .  A
O54          V59   1.895       .  S
O54          C64   1.263       .  A
O55          V60   1.909       .  S
O55          C64   1.265       .  A
O56          V60   1.909       .  S
O56          C63   1.266       .  A
O57          V60   1.907       .  S
O57          C62   1.265       .  A
O58          V60   1.898       .  S
O58          C61   1.262       .  A
V59          V60   2.087       .  T
C61         C284   1.463       .  S
C62         C271   1.464       .  S
C63         C303   1.466       .  S
C64         C508   1.466       .  S
C65          C66   1.421       .  A
C65          C70   1.400   1_655  A
C65         C351   1.484       .  S
C66          C67   1.405   1_655  A
C66         C255   1.486       .  S
C67          C68   1.405   1_556  A
C67          H72   1.083       .  S
C68          C69   1.420       .  A
C68         C287   1.494       .  S
C69          C70   1.402   1_554  A
C69         C236   1.476       .  S
C70          H71   1.084       .  S
C73          C74   1.419       .  A
C73          C78   1.406       .  A
C73         C335   1.482       .  S
C74          C75   1.402       .  A
C74         C220   1.484       .  S
C75          C76   1.399   1_655  A
C75          H80   1.084       .  S
C76          C77   1.417       .  A
C76         C300   1.480       .  S
C77          C78   1.407   1_455  A
C77         C207   1.482       .  S
C78          H79   1.084       .  S
O81          V89   1.895       .  S
O81          C91   1.263       .  A
O82          V89   1.895       .  S
O82          C92   1.263       .  A
O83          V89   1.895       .  S
O83          C93   1.263       .  A
O84          V89   1.893       .  S
O84          C94   1.263       .  A
O85          V90   1.905       .  S
O85          C94   1.265       .  A
O86          V90   1.905       .  S
O86          C93   1.265       .  A
O87          V90   1.900       .  S
O87          C92   1.263       .  A
O88          V90   1.898       .  S
O88          C91   1.264       .  A
V89          V90   2.089       .  T
C91         C239   1.464       .  S
C92         C188   1.465       .  S
C93         C172   1.468       .  S
C94         C204   1.467       .  S
O95         V103   1.898       .  S
O95         C105   1.263       .  A
O96         V103   1.899       .  S
O96         C106   1.263       .  A
O97         V103   1.901       .  S
O97         C107   1.263       .  A
O98         V103   1.901       .  S
O98         C108   1.265       .  A
O99         V104   1.892       .  S
O99         C108   1.262       .  A
O100        V104   1.894       .  S
O100        C107   1.263       .  A
O101        V104   1.894       .  S
O101        C106   1.262       .  A
O102        V104   1.901       .  S
O102        C105   1.264       .  A
V103        V104   2.088       .  T
C105        C159   1.463       .  S
C106        C252   1.459       .  S
C107        C223   1.459       .  S
C108        C143   1.465       .  S
C109        C110   1.417       .  A
C109        C114   1.399       .  A
C109        C428   1.482       .  S
C110        C111   1.403       .  A
C110        C175   1.478       .  S
C111        C112   1.405   1_554  A
C111        H116   1.084   1_554  S
C112        C113   1.421       .  A
C112        C383   1.491       .  S
C113        C114   1.401   1_556  A
C113        C140   1.476       .  S
C114        H115   1.085       .  S
C117        C118   1.418       .  A
C117        C122   1.399       .  A
C117        C191   1.480       .  S
C118        C119   1.401       .  A
C118        C444   1.480       .  S
C119        C120   1.403       .  A
C119        H124   1.083       .  S
C120        C121   1.420       .  A
C120        C156   1.489       .  S
C121        C122   1.400       .  A
C121        C399   1.474       .  S
C122        H123   1.085       .  S
C125        C126   1.421       .  A
C125        C130   1.404   1_565  A
C125        C415   1.493       .  S
C126        C127   1.409   1_565  A
C126        C268   1.483       .  S
C127        C128   1.406       .  A
C127        H132   1.084       .  S
C128        C129   1.419       .  A
C128        C367   1.492       .  S
C129        C130   1.404       .  A
C129        C319   1.482       .  S
C130        H131   1.084   1_545  S
C133        C138   1.387       .  A
C133        C134   1.400       .  A
C133        S139   1.704       .  A
C134        C135   1.401       .  A
C134        H145   1.083       .  S
C135        C144   1.369       .  A
C135        C136   1.388       .  A
C136        C137   1.398       .  A
C136        S142   1.702       .  A
C137        C138   1.399       .  A
C137        H146   1.083       .  S
C138        C141   1.366       .  A
S139        C140   1.723       .  A
C140        C141   1.385       .  A
C141        H147   1.083       .  S
S142        C143   1.721       .  A
C143        C144   1.385       .  A
C144        H148   1.083       .  S
C149        C154   1.385       .  A
C149        C150   1.401       .  A
C149        S155   1.705       .  A
C150        C151   1.402       .  A
C150        H161   1.083       .  S
C151        C160   1.370       .  A
C151        C152   1.388       .  A
C152        C153   1.400       .  A
C152        S158   1.706       .  A
C153        C154   1.401       .  A
C153        H162   1.083       .  S
C154        C157   1.367       .  A
S155        C156   1.727       .  A
C156        C157   1.389       .  A
C157        H163   1.081       .  S
S158        C159   1.720       .  A
C159        C160   1.384       .  A
C160        H164   1.083       .  S
C165        C170   1.387       .  A
C165        C166   1.403       .  A
C165        S171   1.711       .  A
C166        C167   1.404       .  A
C166        H177   1.083       .  S
C167        C176   1.371       .  A
C167        C168   1.387       .  A
C168        C169   1.398       .  A
C168        S174   1.704       .  A
C169        C170   1.400       .  A
C169        H178   1.083       .  S
C170        C173   1.367       .  A
S171        C172   1.723       .  A
C172        C173   1.384       .  A
C173        H179   1.083       .  S
S174        C175   1.723       .  A
C175        C176   1.387       .  A
C176        H180   1.083       .  S
C181        C186   1.387       .  A
C181        C182   1.400       .  A
C181        S187   1.707       .  A
C182        C183   1.402       .  A
C182        H193   1.083       .  S
C183        C192   1.368       .  A
C183        C184   1.387       .  A
C184        C185   1.399       .  A
C184        S190   1.704       .  A
C185        C186   1.401       .  A
C185        H194   1.083       .  S
C186        C189   1.367       .  A
S187        C188   1.721       .  A
C188        C189   1.384       .  A
C189        H195   1.083       .  S
S190        C191   1.725       .  A
C191        C192   1.386       .  A
C192        H196   1.083       .  S
C197        C202   1.388       .  A
C197        C198   1.395       .  A
C197        S203   1.701       .  A
C198        C199   1.397       .  A
C198        H209   1.083       .  S
C199        C208   1.362       .  A
C199        C200   1.386       .  A
C200        C201   1.406       .  A
C200        S206   1.714       .  A
C201        C202   1.407       .  A
C201        H210   1.083       .  S
C202        C205   1.374       .  A
S203        C204   1.719       .  A
C204        C205   1.388       .  A
C205        H211   1.083       .  S
S206        C207   1.726       .  A
C207        C208   1.384       .  A
C208        H212   1.082       .  S
C213        C218   1.387       .  A
C213        C214   1.399       .  A
C213        S219   1.703       .  A
C214        C215   1.401       .  A
C214        H225   1.083       .  S
C215        C224   1.367       .  A
C215        C216   1.388       .  A
C216        C217   1.401       .  A
C216        S222   1.710       .  A
C217        C218   1.402       .  A
C217        H226   1.083       .  S
C218        C221   1.370       .  A
S219        C220   1.726       .  A
C220        C221   1.387       .  A
C221        H227   1.083       .  S
S222        C223   1.718       .  A
C223        C224   1.383       .  A
C224        H228   1.084       .  S
C229        C234   1.387       .  A
C229        C230   1.401       .  A
C229        S235   1.708       .  A
C230        C231   1.402       .  A
C230        H241   1.083       .  S
C231        C240   1.368       .  A
C231        C232   1.388       .  A
C232        C233   1.398       .  A
C232        S238   1.704       .  A
C233        C234   1.399       .  A
C233        H242   1.083       .  S
C234        C237   1.365       .  A
S235        C236   1.723       .  A
C236        C237   1.385       .  A
C237        H243   1.083       .  S
S238        C239   1.720       .  A
C239        C240   1.385       .  A
C240        H244   1.083       .  S
C245        C250   1.388       .  A
C245        C246   1.398       .  A
C245        S251   1.705       .  A
C246        C247   1.400       .  A
C246        H257   1.083       .  S
C247        C256   1.365       .  A
C247        C248   1.386       .  A
C248        C249   1.401       .  A
C248        S254   1.706       .  A
C249        C250   1.402       .  A
C249        H258   1.083       .  S
C250        C253   1.368       .  A
S251        C252   1.718       .  A
C252        C253   1.383       .  A
C253        H259   1.083       .  S
S254        C255   1.725       .  A
C255        C256   1.388       .  A
C256        H260   1.082       .  S
C261        C266   1.387       .  A
C261        C262   1.401       .  A
C261        S267   1.706       .  A
C262        C263   1.402       .  A
C262        H273   1.083       .  S
C263        C272   1.370       .  A
C263        C264   1.388       .  A
C264        C265   1.402       .  A
C264        S270   1.710       .  A
C265        C266   1.403       .  A
C265        H274   1.083       .  S
C266        C269   1.371       .  A
S267        C268   1.726       .  A
C268        C269   1.387       .  A
C269        H275   1.083       .  S
S270        C271   1.720       .  A
C271        C272   1.384       .  A
C272        H276   1.083       .  S
C277        C282   1.388       .  A
C277        C278   1.402       .  A
C277        S283   1.708       .  A
C278        C279   1.403       .  A
C278        H289   1.083       .  S
C279        C288   1.372       .  A
C279        C280   1.385       .  A
C280        C281   1.401       .  A
C280        S286   1.703       .  A
C281        C282   1.402       .  A
C281        H290   1.083       .  S
C282        C285   1.371       .  A
S283        C284   1.720       .  A
C284        C285   1.383       .  A
C285        H291   1.083       .  S
S286        C287   1.730       .  A
C287        C288   1.390       .  A
C288        H292   1.083       .  S
C293        C298   1.387       .  A
C293        C294   1.404       .  A
C293        S299   1.710       .  A
C294        C295   1.404       .  A
C294        H305   1.083       .  S
C295        C304   1.373       .  A
C295        C296   1.388       .  A
C296        C297   1.402       .  A
C296        S302   1.709       .  A
C297        C298   1.403       .  A
C297        H306   1.083       .  S
C298        C301   1.372       .  A
S299        C300   1.723       .  A
C300        C301   1.385       .  A
C301        H307   1.083       .  S
S302        C303   1.720       .  A
C303        C304   1.385       .  A
C304        H308   1.083       .  S
C309        C314   1.388       .  A
C309        C310   1.399       .  A
C309        S315   1.702       .  A
C310        C311   1.399       .  A
C310        H321   1.083       .  S
C311        C320   1.367       .  A
C311        C312   1.386       .  A
C312        C313   1.404       .  A
C312        S318   1.709       .  A
C313        C314   1.404       .  A
C313        H322   1.083       .  S
C314        C317   1.374       .  A
S315        C316   1.722       .  A
C316        C317   1.387       .  A
C317        H323   1.083       .  S
S318        C319   1.725       .  A
C319        C320   1.386       .  A
C320        H324   1.083       .  S
C325        C330   1.387       .  A
C325        C326   1.405       .  A
C325        S331   1.713       .  A
C326        C327   1.406       .  A
C326        H337   1.082       .  S
C327        C336   1.375       .  A
C327        C328   1.387       .  A
C328        C329   1.401       .  A
C328        S334   1.706       .  A
C329        C330   1.402       .  A
C329        H338   1.082       .  S
C330        C333   1.371       .  A
S331        C332   1.724       .  A
C332        C333   1.386       .  A
C333        H339   1.083       .  S
S334        C335   1.725       .  A
C335        C336   1.388       .  A
C336        H340   1.083       .  S
C341        C346   1.386       .  A
C341        C342   1.406       .  A
C341        S347   1.715       .  A
C342        C343   1.407       .  A
C342        H353   1.083       .  S
C343        C352   1.375       .  A
C343        C344   1.387       .  A
C344        C345   1.398       .  A
C344        S350   1.703       .  A
C345        C346   1.399       .  A
C345        H354   1.083       .  S
C346        C349   1.367       .  A
S347        C348   1.725       .  A
C348        C349   1.384       .  A
C349        H355   1.083       .  S
S350        C351   1.724       .  A
C351        C352   1.390       .  A
C352        H356   1.083       .  S
C357        C362   1.387       .  A
C357        C358   1.406       .  A
C357        S363   1.712       .  A
C358        C359   1.406       .  A
C358        H369   1.083       .  S
C359        C368   1.376       .  A
C359        C360   1.386       .  A
C360        C361   1.403       .  A
C360        S366   1.707       .  A
C361        C362   1.403       .  A
C361        H370   1.083       .  S
C362        C365   1.373       .  A
S363        C364   1.722       .  A
C364        C365   1.386       .  A
C365        H371   1.083       .  S
S366        C367   1.728       .  A
C367        C368   1.390       .  A
C368        H372   1.083       .  S
C373        C378   1.387       .  A
C373        C374   1.402       .  A
C373        S379   1.708       .  A
C374        C375   1.402       .  A
C374        H385   1.083       .  S
C375        C384   1.371       .  A
C375        C376   1.386       .  A
C376        C377   1.404       .  A
C376        S382   1.707       .  A
C377        C378   1.405       .  A
C377        H386   1.083       .  S
C378        C381   1.374       .  A
S379        C380   1.720       .  A
C380        C381   1.387       .  A
C381        H387   1.083       .  S
S382        C383   1.730       .  A
C383        C384   1.388       .  A
C384        H388   1.083       .  S
C389        C394   1.387       .  A
C389        C390   1.398       .  A
C389        S395   1.705       .  A
C390        C391   1.400       .  A
C390        H401   1.083       .  S
C391        C400   1.365       .  A
C391        C392   1.388       .  A
C392        C393   1.399       .  A
C392        S398   1.705       .  A
C393        C394   1.401       .  A
C393        H402   1.082       .  S
C394        C397   1.366       .  A
S395        C396   1.720       .  A
C396        C397   1.384       .  A
C397        H403   1.083       .  S
S398        C399   1.724       .  A
C399        C400   1.383       .  A
C400        H404   1.083       .  S
C405        C410   1.387       .  A
C405        C406   1.403       .  A
C405        S411   1.708       .  A
C406        C407   1.403       .  A
C406        H417   1.082       .  S
C407        C416   1.372       .  A
C407        C408   1.385       .  A
C408        C409   1.405       .  A
C408        S414   1.710       .  A
C409        C410   1.405       .  A
C409        H418   1.083       .  S
C410        C413   1.375       .  A
S411        C412   1.723       .  A
C412        C413   1.389       .  A
C413        H419   1.083       .  S
S414        C415   1.728       .  A
C415        C416   1.390       .  A
C416        H420   1.082       .  S
C421        C426   1.387       .  A
C421        C422   1.403       .  A
C421        S427   1.706       .  A
C422        C423   1.403       .  A
C422        H433   1.083       .  S
C423        C432   1.373       .  A
C423        C424   1.388       .  A
C424        C425   1.400       .  A
C424        S430   1.704       .  A
C425        C426   1.400       .  A
C425        H434   1.083       .  S
C426        C429   1.369       .  A
S427        C428   1.724       .  A
C428        C429   1.387       .  A
C429        H435   1.083       .  S
S430        C431   1.720       .  A
C431        C432   1.384       .  A
C432        H436   1.083       .  S
C437        C442   1.386       .  A
C437        C438   1.403       .  A
C437        S443   1.707       .  A
C438        C439   1.403       .  A
C438        H449   1.083       .  S
C439        C448   1.372       .  A
C439        C440   1.389       .  A
C440        C441   1.397       .  A
C440        S446   1.700       .  A
C441        C442   1.397       .  A
C441        H450   1.083       .  S
C442        C445   1.364       .  A
S443        C444   1.725       .  A
C444        C445   1.385       .  A
C445        H451   1.083       .  S
S446        C447   1.718       .  A
C447        C448   1.384       .  A
C448        H452   1.083       .  S
C453        C458   1.387       .  A
C453        C454   1.401       .  A
C453        S459   1.705       .  A
C454        C455   1.402       .  A
C454        H465   1.082       .  S
C455        C464   1.369       .  A
C455        C456   1.385       .  A
C456        C457   1.406       .  A
C456        S462   1.711       .  A
C457        C458   1.406       .  A
C457        H466   1.081       .  S
C458        C461   1.376       .  A
S459        C460   1.723       .  A
C460        C461   1.389       .  A
C461        H467   1.081       .  S
S462        C463   1.728       .  A
C463        C464   1.390       .  A
C464        H468   1.082       .  S
C469        C474   1.388       .  A
C469        C470   1.401       .  A
C469        S475   1.709       .  A
C470        C471   1.403       .  A
C470        H481   1.083       .  S
C471        C480   1.369       .  A
C471        C472   1.387       .  A
C472        C473   1.398       .  A
C472        S478   1.703       .  A
C473        C474   1.399       .  A
C473        H482   1.083       .  S
C474        C477   1.366       .  A
S475        C476   1.719       .  A
C476        C477   1.380       .  A
C477        H483   1.083       .  S
S478        C479   1.725       .  A
C479        C480   1.386       .  A
C480        H484   1.083       .  S
C485        C490   1.387       .  A
C485        C486   1.400       .  A
C485        S491   1.705       .  A
C486        C487   1.401       .  A
C486        H497   1.082       .  S
C487        C496   1.368       .  A
C487        C488   1.387       .  A
C488        C489   1.403       .  A
C488        S494   1.710       .  A
C489        C490   1.404       .  A
C489        H498   1.083       .  S
C490        C493   1.372       .  A
S491        C492   1.725       .  A
C492        C493   1.387       .  A
C493        H499   1.083       .  S
S494        C495   1.723       .  A
C495        C496   1.386       .  A
C496        H500   1.083       .  S
C501        C506   1.387       .  A
C501        C502   1.406       .  A
C501        S507   1.713       .  A
C502        C503   1.407       .  A
C502        H513   1.083       .  S
C503        C512   1.375       .  A
C503        C504   1.386       .  A
C504        C505   1.398       .  A
C504        S510   1.701       .  A
C505        C506   1.399       .  A
C505        H514   1.083       .  S
C506        C509   1.368       .  A
S507        C508   1.723       .  A
C508        C509   1.382       .  A
C509        H515   1.083       .  S
S510        C511   1.726       .  A
C511        C512   1.391       .  A
C512        H516   1.083       .  S
