geometry optimzed in LAMMPS
_audit_creation_date              2020-12-01 
_audit_creation_method            'lammps2cif' 
_symmetry_space_group_name_H-M    'P1' 
_symmetry_Int_Tables_number       1 
_symmetry_cell_setting            triclinic 
loop_ 
_symmetry_equiv_pos_as_xyz 
  x,y,z 
_cell_length_a                    30.51066442 
_cell_length_b                    29.838391153549836 
_cell_length_c                    30.454526957190097 
_cell_angle_alpha                 99.82728901077255 
_cell_angle_beta                  86.97698839071465 
_cell_angle_gamma                 79.41069224573333 
loop_ 
_atom_site_label 
_atom_site_type_symbol 
_atom_site_fract_x 
_atom_site_fract_y 
_atom_site_fract_z 
_atom_site_charge 
C1          C  0.37871027  0.11542364  0.30784977     0.03000
C2          C  0.35172582  0.08163801  0.30930187    -0.13200
C3          C  0.31786587  0.08817704  0.34512320     0.00500
C4          C  0.31292865  0.12770815  0.37970132    -0.11700
C5          C  0.33942982  0.16122122  0.37777741     0.03000
C6          C  0.37084851  0.15505299  0.34134560    -0.11100
H7          H  0.35739354  0.05066829  0.28371317     0.08600
H8          H  0.28914584  0.13184553  0.40850032     0.06100
H9          H  0.39197166  0.18048688  0.34055814     0.06000
C10         C  0.40553521  0.34760815  0.06871082     0.03000
C11         C  0.37024040  0.38652899  0.07292056    -0.13200
C12         C  0.36305412  0.42197055  0.11108777     0.00500
C13         C  0.39337559  0.41941244  0.14410981    -0.11700
C14         C  0.42916029  0.38143934  0.14039971     0.03000
C15         C  0.43437483  0.34496868  0.10309601    -0.11100
H16         H  0.34662257  0.38775840  0.04757822     0.08600
H17         H  0.38854036  0.44658989  0.17349090     0.06100
H18         H  0.46088598  0.31478957  0.10065831     0.06000
C19         C  0.16396003  0.40441410  0.40676776     0.03000
C20         C  0.13077308  0.41210484  0.37653516    -0.13200
C21         C  0.10355424  0.37969367  0.36378665     0.00500
C22         C  0.10575561  0.34168096  0.38648261    -0.11700
C23         C  0.13667804  0.33449023  0.41889742     0.03000
C24         C  0.16761950  0.36444157  0.42634267    -0.11100
H25         H  0.12788402  0.44224742  0.36088231     0.08600
H26         H  0.08308033  0.31792301  0.37921281     0.06100
H27         H  0.19309500  0.35777154  0.44893627     0.06000
C28         C  0.17678440  0.10104666  0.12919803     0.03000
C29         C  0.14213189  0.10455757  0.16317637    -0.13200
C30         C  0.10090568  0.13653864  0.16522187     0.00500
C31         C  0.09654336  0.16780282  0.13477850    -0.11700
C32         C  0.13223989  0.16689671  0.10275657     0.03000
C33         C  0.17105183  0.13230579  0.09972098    -0.11100
H34         H  0.14618413  0.08075709  0.18645720     0.08600
H35         H  0.06554846  0.19260912  0.13601086     0.06100
H36         H  0.19761859  0.12960243  0.07412182     0.06000
O37         O  0.06874985  0.12468538  0.23549609    -0.71900
O38         O  0.45335987  0.12215328  0.29081467    -0.72100
O39         O  0.03581205  0.05462248  0.25684597    -0.72000
O40         O  0.00397680  0.18204726  0.29355319    -0.72000
O41         O  0.43028591  0.18574058  0.21022135    -0.72000
O42         O  0.49320057  0.06024351  0.18394603    -0.72000
O43         O  0.41566628  0.10702161  0.23342743    -0.71900
O44         O  0.02202786  0.14008233  0.18635472    -0.72900
V45         V  0.01921980  0.11823075  0.27378857     1.35200
V46         V  0.46264009  0.12303692  0.19775826     1.35200
C47         C  0.06215082  0.13462232  0.19723111     0.77300
C48         C  0.41796793  0.11201799  0.27539438     0.77400
C49         C  0.02853297  0.03519529  0.21890647     0.77300
C50         C  0.96824758  0.20381861  0.28241414     0.77200
O51         O  0.14821306  0.18444814  0.46159572    -0.71900
O52         O  0.18745643  0.27955794  0.53774180    -0.72100
O53         O  0.16238005  0.19471846  0.04097429    -0.72000
O54         O  0.16838411  0.26954840  0.45302324    -0.72000
O55         O  0.09883925  0.30152783  0.47330614    -0.72000
O56         O  0.09616550  0.23126460  0.06937800    -0.72000
O57         O  0.11863972  0.31398128  0.06294347    -0.71900
O58         O  0.07105555  0.22496951  0.98644039    -0.72100
V59         V  0.16646148  0.23365800  0.49971792     1.35200
V60         V  0.09612892  0.26877072  0.02371972     1.35200
C61         C  0.09617104  0.18959654  0.96297063     0.77300
C62         C  0.16046858  0.30973763  0.06215167     0.77400
C63         C  0.12982854  0.19930932  0.07000443     0.77300
C64         C  0.13426191  0.29943997  0.44858405     0.77200
O65         O  0.29542865  0.46397523  0.08832548    -0.71900
O66         O  0.23174859  0.03909180  0.08424580    -0.72100
O67         O  0.26764268  0.55040806  0.07421335    -0.72000
O68         O  0.21395451  0.46700625  0.12650666    -0.72000
O69         O  0.27498268  0.97123607  0.16529095    -0.72000
O70         O  0.32450300  0.06196047  0.11749422    -0.72000
O71         O  0.24320351  0.05835534  0.15408530    -0.71900
O72         O  0.31363732  0.48858697  0.15482077    -0.72100
V73         V  0.24129693  0.50948160  0.10142136     1.35200
V74         V  0.29960347  0.01571468  0.14105955     1.35200
C75         C  0.32257337  0.45993750  0.11815109     0.77300
C76         C  0.21877714  0.06449329  0.12243528     0.77400
C77         C  0.29276368  0.57453028  0.09477765     0.77300
C78         C  0.21231781  0.47060271  0.16823925     0.77200
O79         O  0.07507930  0.35151037  0.29439714    -0.71900
O80         O  0.48236605  0.34152415  0.18230881    -0.72100
O81         O  0.05195203  0.36740413  0.20926981    -0.72000
O82         O  0.99589138  0.32962111  0.30683095    -0.72000
O83         O  0.45162809  0.40370797  0.28532538    -0.72000
O84         O  0.54891832  0.42387247  0.21495107    -0.72000
O85         O  0.46438779  0.41644224  0.20224445    -0.71900
O86         O  0.04180104  0.42012155  0.32871219    -0.72100
V87         V  0.02488958  0.34903298  0.25977036     1.35200
V88         V  0.50162603  0.41224518  0.25035921     1.35200
C89         C  0.07278796  0.38468327  0.32704533     0.77300
C90         C  0.46001628  0.37974168  0.17633824     0.77400
C91         C  0.57025782  0.39173667  0.18471394     0.77300
C92         C  0.44667004  0.36268609  0.28473075     0.77200
O93         O  0.18371245  0.47861308  0.41051085    -0.71900
O94         O  0.24679711  0.06784585  0.35836076    -0.72100
O95         O  0.19793168  0.00538517  0.32276336    -0.72000
O96         O  0.22381644  0.05669076  0.43856784    -0.72000
O97         O  0.29452719  0.48393046  0.43372515    -0.72000
O98         O  0.26089339  0.42378245  0.32436309    -0.72000
O99         O  0.30476112  0.01202967  0.35239645    -0.71900
O100        O  0.23899144  0.42062020  0.40730044    -0.72100
V101        V  0.21107221  0.02913694  0.38085060     1.35200
V102        V  0.27647524  0.45486673  0.37908253     1.35200
C103        C  0.19698848  0.43613507  0.41168852     0.77300
C104        C  0.28869380  0.05390552  0.35015643     0.77400
C105        C  0.22456935  0.44084361  0.31024115     0.77300
C106        C  0.26207745  0.04164647  0.45036261     0.77200
O107        O  0.34998637  0.19092137  0.45378570    -0.71900
O108        O  0.40961673  0.26677227  0.03853529    -0.72100
O109        O  0.32869434  0.25118663  0.03081634    -0.72000
O110        O  0.44044595  0.19494557  0.96726268    -0.72000
O111        O  0.42798415  0.25223085  0.41774247    -0.72000
O112        O  0.31448754  0.30960291  0.47764230    -0.72000
O113        O  0.39677082  0.31556755  0.99319304    -0.71900
O114        O  0.34599164  0.23858210  0.40694389    -0.72100
V115        V  0.38424470  0.22385038  0.99807939     1.35200
V116        V  0.37114687  0.27974042  0.44848170     1.35200
C117        C  0.34219695  0.19921714  0.41525883     0.77300
C118        C  0.40648226  0.30789443  0.03143838     0.77400
C119        C  0.30630277  0.28737021  0.02063306     0.77300
C120        C  0.45316683  0.20825371  0.93231385     0.77200
C121        C  0.35445265  0.56268227  0.04355925    -0.26400
C122        C  0.32026486  0.59727369  0.06805108    -0.14500
C123        C  0.29630954  0.12124429  0.04499226     0.36100
C124        C  0.26566009  0.11088506  0.50951441    -0.25900
C125        C  0.29517392  0.55519943  0.48390200    -0.15100
C126        C  0.33711847  0.54036269  0.50000343     0.37200
N127        N  0.36629054  0.49796877  0.47910635    -0.89400
H128        H  0.38235625  0.54765826  0.06043976     0.18300
H129        H  0.23041437  0.12475833  0.50902130     0.18300
N130        N  0.27515334  0.16029256  0.07788230    -0.88400
H131        H  0.37111521  0.47627492  0.50274137     0.35700
H132        H  0.39722324  0.50570637  0.47015192     0.40800
H133        H  0.29685930  0.18365630  0.08047595     0.40400
H134        H  0.27232603  0.14951623  0.10866146     0.35300
C135        C  0.22744085  0.39908453  0.19462839    -0.26400
C136        C  0.19521929  0.43790899  0.19065468    -0.14500
C137        C  0.18496553  0.96137925  0.18677087     0.36100
C138        C  0.18713188  0.97682516  0.23204411    -0.25900
C139        C  0.20487848  0.41602238  0.27304139    -0.15100
C140        C  0.23345589  0.38861223  0.23712472     0.37200
N141        N  0.27255791  0.35727124  0.24471884    -0.89400
H142        H  0.25414669  0.38495637  0.16829533     0.18300
H143        H  0.17114271  0.01192663  0.24670698     0.18300
N144        N  0.15433572  0.98783443  0.16224654    -0.88400
H145        H  0.30036008  0.36812237  0.23180281     0.35700
H146        H  0.27165709  0.32447253  0.22645290     0.40800
H147        H  0.13787396  0.96480759  0.14288568     0.40400
H148        H  0.17196587  0.00230631  0.13998508     0.35300
C149        C  0.50992192  0.14435437  0.40772709    -0.26400
C150        C  0.49345728  0.18150901  0.90405087    -0.14500
C151        C  0.51726253  0.20101565  0.87335673     0.36100
C152        C  0.04568081  0.15670041  0.91630294    -0.25900
C153        C  0.07643671  0.14918294  0.94771020    -0.15100
C154        C  0.07674511  0.12206840  0.48669924     0.37200
N155        N  0.10944419  0.09725113  0.51021706    -0.89400
H156        H  0.49157049  0.12607003  0.42776994     0.18300
H157        H  0.05640560  0.16517219  0.88475047     0.18300
N158        N  0.50005118  0.24597576  0.86405558    -0.88400
H159        H  0.10226551  0.06415219  0.50924342     0.35700
H160        H  0.10507887  0.11357295  0.54360491     0.40800
H161        H  0.50650727  0.24527075  0.82994901     0.40400
H162        H  0.51800771  0.26908435  0.88111282     0.35300
C163        C  0.24163374  0.35370320  0.03647866    -0.26400
C164        C  0.26893221  0.31663240  0.05095967    -0.14500
C165        C  0.25705118  0.32129779  0.58873634     0.36100
C166        C  0.21328555  0.33683713  0.60921256    -0.25900
C167        C  0.18218341  0.34460083  0.08664234    -0.15100
C168        C  0.19818783  0.37047136  0.05694394     0.37200
N169        N  0.16806065  0.40199649  0.03663306    -0.89400
H170        H  0.25184251  0.36603725  0.00683207     0.18300
H171        H  0.20419275  0.32518875  0.63962022     0.18300
N172        N  0.29074124  0.29568718  0.61079915    -0.88400
H173        H  0.17448163  0.43514913  0.04712527     0.35700
H174        H  0.13487752  0.40234419  0.04753441     0.40800
H175        H  0.27855461  0.26775948  0.61987652     0.40400
H176        H  0.29578793  0.31717512  0.64017491     0.35300
C177        C  0.04059479  0.96140467  0.16280704    -0.26400
C178        C  0.05236218  0.98722410  0.20203578    -0.14500
C179        C  0.57919991  0.98278548  0.23002419     0.36100
C180        C  0.55496873  0.41420829  0.11635577    -0.25900
C181        C  0.58908557  0.40517811  0.14493768    -0.15100
C182        C  0.06558580  0.45845167  0.15575427     0.37200
N183        N  0.11244963  0.44315100  0.14414647    -0.89400
H184        H  0.01729185  0.97773052  0.14192579     0.18300
H185        H  0.53887390  0.38638189  0.10175299     0.18300
N186        N  0.58119758  0.01011718  0.27341005    -0.88400
H187        H  0.11970537  0.45258839  0.11340680     0.35700
H188        H  0.12044588  0.40717552  0.13985235     0.40800
H189        H  0.59615354  0.03805594  0.26910310     0.40400
H190        H  0.60165929  0.99106425  0.29285269     0.35300
C191        C  0.38628969  0.33723509  0.25209924    -0.26400
C192        C  0.40258687  0.35176289  0.29344321    -0.14500
C193        C  0.95284389  0.30505860  0.37757036     0.36100
C194        C  0.96531317  0.26030217  0.35254102    -0.25900
C195        C  0.94731541  0.24832208  0.31126916    -0.15100
C196        C  0.39475748  0.28941613  0.23432963     0.37200
N197        N  0.39297214  0.27342655  0.18755292    -0.89400
H198        H  0.38072100  0.36122655  0.22901489     0.18300
H199        H  0.99274158  0.23743817  0.36298728     0.18300
N200        N  0.97349396  0.31834676  0.41760405    -0.88400
H201        H  0.41487286  0.28850524  0.16996531     0.35700
H202        H  0.36059583  0.28553563  0.17956681     0.40800
H203        H  0.00820884  0.30862136  0.41068816     0.40400
H204        H  0.96397586  0.29938870  0.44110060     0.35300
C205        C  0.39023332  0.10910966  0.80945441     0.03000
C206        C  0.36568377  0.07308254  0.80885336    -0.13200
C207        C  0.33382106  0.07483580  0.84514260     0.00500
C208        C  0.32726959  0.11279915  0.88164087    -0.11700
C209        C  0.35140923  0.14862006  0.88208478     0.03000
C210        C  0.38214315  0.14628633  0.84572612    -0.11100
H211        H  0.37157924  0.04409834  0.78108479     0.08600
H212        H  0.30322339  0.11458358  0.90956257     0.06100
H213        H  0.40152932  0.17342403  0.84637374     0.06000
C214        C  0.40378864  0.35122560  0.56561776     0.03000
C215        C  0.36854308  0.39046662  0.57160024    -0.13200
C216        C  0.36094569  0.42347220  0.61165051     0.00500
C217        C  0.39046794  0.41784605  0.64497068    -0.11700
C218        C  0.42591658  0.37939319  0.63967387     0.03000
C219        C  0.43175887  0.34548570  0.60034465    -0.11100
H220        H  0.34548376  0.39392713  0.54594806     0.08600
H221        H  0.38536170  0.44310274  0.67581840     0.06100
H222        H  0.45817867  0.31503029  0.59655317     0.06000
C223        C  0.16211832  0.41080632  0.91423703     0.03000
C224        C  0.12780488  0.42085363  0.88556174    -0.13200
C225        C  0.09942813  0.38954829  0.87273765     0.00500
C226        C  0.10068544  0.35134369  0.89471177    -0.11700
C227        C  0.13191756  0.34221681  0.92608500     0.03000
C228        C  0.16468228  0.37026423  0.93302085    -0.11100
H229        H  0.12527194  0.45154009  0.87082535     0.08600
H230        H  0.07749254  0.32825772  0.88695025     0.06100
H231        H  0.19122669  0.36131080  0.95398042     0.06000
C232        C  0.17556690  0.10209696  0.63216263     0.03000
C233        C  0.13838526  0.10352825  0.66275870    -0.13200
C234        C  0.09780850  0.13671243  0.66419209     0.00500
C235        C  0.09615174  0.16967452  0.63534632    -0.11700
C236        C  0.13381529  0.16992451  0.60608143     0.03000
C237        C  0.17236714  0.13543979  0.60479367    -0.11100
H238        H  0.14029358  0.07769971  0.68395620     0.08600
H239        H  0.06560084  0.19482119  0.63552441     0.06100
H240        H  0.20051518  0.13371612  0.58141388     0.06000
O241        O  0.06152470  0.12109456  0.73122021    -0.71900
O242        O  0.46306718  0.11932388  0.78929074    -0.72100
O243        O  0.01647786  0.05679183  0.74899924    -0.72000
O244        O  0.00235349  0.18350196  0.79175781    -0.72000
O245        O  0.43485508  0.18762236  0.71194396    -0.72000
O246        O  0.49504343  0.06282663  0.68039864    -0.72000
O247        O  0.42143290  0.10839743  0.73427421    -0.71900
O248        O  0.01720540  0.14734955  0.68413597    -0.72900
V249        V  0.00922566  0.12014183  0.76900062     1.35200
V250        V  0.46649118  0.12534053  0.69694127     1.35200
C251        C  0.05712338  0.13549018  0.69451242     0.77300
C252        C  0.42678583  0.11007437  0.77554126     0.77400
C253        C  0.00950938  0.04197465  0.70934220     0.77300
C254        C  0.96833925  0.20985018  0.78239674     0.77200
O255        O  0.13770590  0.18827587  0.95866451    -0.71900
O256        O  0.18514862  0.27571879  0.03643597    -0.72100
O257        O  0.16739435  0.19774471  0.54571648    -0.72000
O258        O  0.16174761  0.27264556  0.95383915    -0.72000
O259        O  0.09421569  0.30786828  0.97945823    -0.72000
O260        O  0.09957717  0.23291823  0.56966359    -0.72000
O261        O  0.11918934  0.31634167  0.55848553    -0.71900
O262        O  0.07968181  0.21846484  0.48525643    -0.72100
V263        V  0.16031634  0.23368383  0.99773155     1.35200
V264        V  0.10054072  0.26665182  0.52102499     1.35200
C265        C  0.10714017  0.18326233  0.46437829     0.77300
C266        C  0.16068088  0.31435376  0.56006094     0.77400
C267        C  0.13336345  0.20212006  0.57299472     0.77300
C268        C  0.12890465  0.30543726  0.95347804     0.77200
O269        O  0.29109848  0.46558851  0.59325217    -0.71900
O270        O  0.22926692  0.03848084  0.58826942    -0.72100
O271        O  0.26525035  0.55110141  0.57667206    -0.72000
O272        O  0.21142045  0.47436602  0.63749129    -0.72000
O273        O  0.28300579  0.97764642  0.66793763    -0.72000
O274        O  0.32481580  0.06935570  0.61517425    -0.72000
O275        O  0.24546867  0.06355930  0.65543069    -0.71900
O276        O  0.31606814  0.49291537  0.65565953    -0.72100
V277        V  0.23895449  0.51364268  0.60827971     1.35200
V278        V  0.30317898  0.02260534  0.64101653     1.35200
C279        C  0.32122298  0.46241783  0.62026602     0.77300
C280        C  0.21791963  0.06573256  0.62567885     0.77400
C281        C  0.29050315  0.57663508  0.59464139     0.77300
C282        C  0.21451489  0.47727257  0.67870073     0.77200
O283        O  0.07475184  0.35935236  0.80262529    -0.71900
O284        O  0.47763758  0.33704861  0.68168089    -0.72100
O285        O  0.05311939  0.37002026  0.71654734    -0.72000
O286        O  0.99758399  0.33393424  0.81509556    -0.72000
O287        O  0.45078858  0.40079150  0.78456542    -0.72000
O288        O  0.54806635  0.41641144  0.71072057    -0.72000
O289        O  0.46269977  0.41215340  0.70077414    -0.71900
O290        O  0.03789491  0.42720197  0.83526594    -0.72100
V291        V  0.02596931  0.35259499  0.76730107     1.35200
V292        V  0.50070099  0.40715022  0.74790132     1.35200
C293        C  0.07024404  0.39332684  0.83478552     0.77300
C294        C  0.45669192  0.37585903  0.67545375     0.77400
C295        C  0.56750228  0.38338092  0.68023999     0.77300
C296        C  0.44536253  0.36022824  0.78589727     0.77200
O297        O  0.18776805  0.48185230  0.91355308    -0.71900
O298        O  0.26384962  0.05069822  0.84710355    -0.72100
O299        O  0.21596734  0.98403489  0.81778401    -0.72000
O300        O  0.23657397  0.05202938  0.92981764    -0.72000
O301        O  0.29915730  0.48101138  0.93875008    -0.72000
O302        O  0.26481798  0.41840943  0.83044273    -0.72000
O303        O  0.32130447  0.99944472  0.85652969    -0.71900
O304        O  0.23936704  0.42143341  0.91403839    -0.72100
V305        V  0.22617866  0.01687857  0.87398677     1.35200
V306        V  0.28089424  0.45082406  0.88460626     1.35200
C307        C  0.19791251  0.43964796  0.91718264     0.77300
C308        C  0.30579875  0.03895980  0.84709340     0.77400
C309        C  0.22959778  0.43668035  0.81511970     0.77300
C310        C  0.27106967  0.03620041  0.94802694     0.77200
O311        O  0.35895197  0.17922037  0.95931372    -0.71900
O312        O  0.40746598  0.27187263  0.53196960    -0.72100
O313        O  0.32460618  0.26277703  0.52505143    -0.72000
O314        O  0.43413967  0.20026401  0.45998943    -0.72000
O315        O  0.43055432  0.24455927  0.92256342    -0.72000
O316        O  0.31716055  0.29841725  0.98391234    -0.72000
O317        O  0.39508638  0.32304421  0.48895116    -0.71900
O318        O  0.34996271  0.22756483  0.91319847    -0.72100
V319        V  0.37895650  0.23227227  0.49175547     1.35200
V320        V  0.37383456  0.27044713  0.95404270     1.35200
C321        C  0.35037709  0.18705305  0.92070078     0.77300
C322        C  0.40483043  0.31343533  0.52660111     0.77400
C323        C  0.30310603  0.29925623  0.51453450     0.77300
C324        C  0.44893593  0.21461542  0.42646712     0.77200
C325        C  0.34848468  0.56668904  0.53917136    -0.26400
C326        C  0.31420189  0.59986362  0.56517960    -0.14500
C327        C  0.29058823  0.12917071  0.54350771     0.36100
C328        C  0.27306151  0.10455392  0.00883655    -0.25900
C329        C  0.30309639  0.55321072  0.98597181    -0.15100
C330        C  0.34374734  0.53679272  0.00374285     0.37200
N331        N  0.37205166  0.49352161  0.98381683    -0.89400
H332        H  0.37779889  0.55260694  0.55470376     0.18300
H333        H  0.23817717  0.11903006  0.00690530     0.18300
N334        N  0.27112941  0.16981553  0.57541465    -0.88400
H335        H  0.37484503  0.47194890  0.00763887     0.35700
H336        H  0.40385013  0.49993452  0.97606977     0.40800
H337        H  0.29238954  0.19345239  0.57471886     0.40400
H338        H  0.27062921  0.16105609  0.60722246     0.35300
C339        C  0.23098540  0.40357820  0.70221367    -0.26400
C340        C  0.19960542  0.44422871  0.70214018    -0.14500
C341        C  0.20437760  0.93526539  0.68928254     0.36100
C342        C  0.19951439  0.93760239  0.73536196    -0.25900
C343        C  0.20766565  0.41153688  0.77967631    -0.15100
C344        C  0.23507993  0.38647807  0.74202947     0.37200
N345        N  0.27155951  0.35036770  0.74619802    -0.89400
H346        H  0.25720289  0.39108193  0.67520720     0.18300
H347        H  0.17051529  0.95937803  0.75475658     0.18300
N348        N  0.17156984  0.96293689  0.66796626    -0.88400
H349        H  0.30068876  0.35995591  0.73486677     0.35700
H350        H  0.26794602  0.32045894  0.72437411     0.40800
H351        H  0.16682095  0.94351685  0.63722321     0.40400
H352        H  0.18260186  0.99266630  0.66223036     0.35300
C353        C  0.51267940  0.13728575  0.91225455    -0.26400
C354        C  0.49006630  0.18818286  0.39896365    -0.14500
C355        C  0.51372618  0.20773891  0.36809777     0.36100
C356        C  0.05955256  0.14625838  0.41834597    -0.25900
C357        C  0.09038647  0.14069464  0.44989920    -0.15100
C358        C  0.06262280  0.12946280  0.98375107     0.37200
N359        N  0.09520228  0.10555509  0.00804324    -0.89400
H360        H  0.49385796  0.11878167  0.93161406     0.18300
H361        H  0.07042417  0.15265570  0.38592246     0.18300
N362        N  0.49593775  0.25208260  0.35770845    -0.88400
H363        H  0.08895241  0.07210792  0.00671404     0.35700
H364        H  0.08964957  0.12193623  0.04151724     0.40800
H365        H  0.50136568  0.25022388  0.32324268     0.40400
H366        H  0.51431130  0.27565554  0.37311024     0.35300
C367        C  0.23618194  0.36367395  0.52965109    -0.26400
C368        C  0.26606724  0.32907984  0.54494538    -0.14500
C369        C  0.25745870  0.30727316  0.09360000     0.36100
C370        C  0.21352715  0.32442511  0.11297560    -0.25900
C371        C  0.17979976  0.35272933  0.58263323    -0.15100
C372        C  0.19272976  0.37826081  0.55100379     0.37200
N373        N  0.16012818  0.40871880  0.53206888    -0.89400
H374        H  0.24478528  0.37566422  0.49931697     0.18300
H375        H  0.20223831  0.31209496  0.14223715     0.18300
N376        N  0.28900559  0.27988038  0.11626623    -0.88400
H377        H  0.16841809  0.44158136  0.53818458     0.35700
H378        H  0.12852801  0.41185930  0.54862031     0.40800
H379        H  0.27443719  0.25328645  0.12508156     0.40400
H380        H  0.29359682  0.30098747  0.14605188     0.35300
C381        C  0.01415556  0.96465998  0.65869181    -0.26400
C382        C  0.03330739  0.99505476  0.68879041    -0.14500
C383        C  0.57681446  0.97805653  0.72027225     0.36100
C384        C  0.54978668  0.40587146  0.61205305    -0.25900
C385        C  0.58496419  0.39527874  0.63909725    -0.15100
C386        C  0.06957941  0.45957012  0.66334465     0.37200
N387        N  0.11698878  0.44491158  0.65557331    -0.89400
H388        H  0.98381918  0.97736594  0.64399922     0.18300
H389        H  0.53028495  0.37987378  0.60069838     0.18300
N390        N  0.57713568  0.00068247  0.76583369    -0.88400
H391        H  0.12656563  0.45202488  0.62449023     0.35700
H392        H  0.12563636  0.40899014  0.65356338     0.40800
H393        H  0.59878277  0.97983675  0.78263309     0.40400
H394        H  0.54509990  0.00383631  0.78163128     0.35300
C395        C  0.38296084  0.33541376  0.75898619    -0.26400
C396        C  0.40174690  0.35032865  0.79877545    -0.14500
C397        C  0.95655136  0.30580946  0.88279557     0.36100
C398        C  0.97004658  0.26274040  0.85441514    -0.25900
C399        C  0.95000825  0.25340360  0.81384911    -0.15100
C400        C  0.39287332  0.28768165  0.74059524     0.37200
N401        N  0.38692521  0.27173183  0.69463702    -0.89400
H402        H  0.37484920  0.35954997  0.73639107     0.18300
H403        H  0.99811203  0.23879881  0.86269519     0.18300
N404        N  0.97665415  0.31641395  0.92370138    -0.88400
H405        H  0.40486750  0.28883472  0.67495393     0.35700
H406        H  0.35299271  0.28137459  0.69012387     0.40800
H407        H  0.01140797  0.30740368  0.91701717     0.40400
H408        H  0.96729437  0.29527139  0.94510329     0.35300
C409        C  0.38784681  0.59043195  0.29990728     0.03000
C410        C  0.35932851  0.55805038  0.30076432    -0.13200
C411        C  0.33010865  0.56122983  0.33957896     0.00500
C412        C  0.32981928  0.59670759  0.37711634    -0.11700
C413        C  0.35757575  0.62913720  0.37668300     0.03000
C414        C  0.38613781  0.62543662  0.33792285    -0.11100
H415        H  0.36037641  0.53052244  0.27227265     0.08600
H416        H  0.30808011  0.59882124  0.40697328     0.06100
H417        H  0.40877953  0.64936662  0.33784664     0.06000
C418        C  0.42124082  0.81012687  0.07898783     0.03000
C419        C  0.39713600  0.85324855  0.07190682    -0.13200
C420        C  0.39155118  0.89360243  0.10473553     0.00500
C421        C  0.41133656  0.89076380  0.14479859    -0.11700
C422        C  0.43544683  0.84873845  0.15351121     0.03000
C423        C  0.44015429  0.80796059  0.12033743    -0.11100
H424        H  0.38066071  0.85488146  0.04137972     0.08600
H425        H  0.40702036  0.92186317  0.17011740     0.06100
H426        H  0.45844585  0.77521913  0.12643845     0.06000
C427        C  0.15660117  0.91564293  0.40580148     0.03000
C428        C  0.12218437  0.91552695  0.37604725    -0.13200
C429        C  0.09467053  0.88184862  0.37286309     0.00500
C430        C  0.09909562  0.85064285  0.40271220    -0.11700
C431        C  0.13117425  0.85086151  0.43404223     0.03000
C432        C  0.16159001  0.88174904  0.43373382    -0.11100
H433        H  0.11817725  0.94043888  0.35393747     0.08600
H434        H  0.07652842  0.82644239  0.40227203     0.06100
H435        H  0.18792212  0.88051038  0.45601145     0.06000
C436        C  0.14300561  0.62544274  0.14982354     0.03000
C437        C  0.10440794  0.62958628  0.17829180    -0.13200
C438        C  0.06691915  0.66570535  0.17903516     0.00500
C439        C  0.06964378  0.69853539  0.15048280    -0.11700
C440        C  0.10965802  0.69492794  0.12239651     0.03000
C441        C  0.14537088  0.65801432  0.12268936    -0.11100
H442        H  0.10302567  0.60340248  0.19874257     0.08600
H443        H  0.04107318  0.72583368  0.14964758     0.06100
H444        H  0.17556152  0.65374215  0.10073178     0.06000
O445        O  0.03201538  0.65024248  0.24514809    -0.71900
O446        O  0.46209724  0.58979820  0.27255341    -0.72100
O447        O  0.00159916  0.57259418  0.23787910    -0.72000
O448        O  0.96990724  0.68841232  0.31545824    -0.72000
O449        O  0.42687997  0.67958542  0.21410444    -0.72000
O450        O  0.48352804  0.55682678  0.15875783    -0.72000
O451        O  0.41298346  0.59657829  0.22390832    -0.71900
O452        O  0.98628443  0.67260131  0.19746275    -0.72900
V453        V  0.98499332  0.63097912  0.27572825     1.35200
V454        V  0.45624549  0.61814876  0.18760948     1.35200
C455        C  0.02619349  0.66480471  0.20883125     0.77300
C456        C  0.42249081  0.58925843  0.26265824     0.77400
C457        C  0.98362771  0.56461116  0.20169740     0.77300
C458        C  0.93836868  0.71896892  0.30769714     0.77200
O459        O  0.11833616  0.71498617  0.48071364    -0.71900
O460        O  0.18463677  0.78428169  0.55404081    -0.72100
O461        O  0.14472949  0.71022124  0.05571091    -0.72000
O462        O  0.15876762  0.78782209  0.47257831    -0.72000
O463        O  0.09366874  0.83069481  0.49671078    -0.72000
O464        O  0.09039938  0.76433274  0.09014970    -0.72000
O465        O  0.13049487  0.83465514  0.07064429    -0.71900
O466        O  0.05982156  0.75490793  0.00976859    -0.72100
V467        V  0.15018067  0.75171109  0.51802605     1.35200
V468        V  0.09523444  0.79455150  0.03979438     1.35200
C469        C  0.07911684  0.71831869  0.98304370     0.77300
C470        C  0.17204590  0.81869970  0.06931712     0.77400
C471        C  0.11499993  0.72492053  0.08848679     0.77300
C472        C  0.12830759  0.82206662  0.46939980     0.77200
O473        O  0.33117513  0.93690981  0.07220197    -0.71900
O474        O  0.18661906  0.55370506  0.11199635    -0.72100
O475        O  0.31822176  0.02229495  0.05228557    -0.72000
O476        O  0.24613408  0.95290291  0.10238071    -0.72000
O477        O  0.22948113  0.50116143  0.19130574    -0.72000
O478        O  0.29607644  0.57428885  0.13578302    -0.72000
O479        O  0.21101328  0.58653037  0.17274256    -0.71900
O480        O  0.35531621  0.97294414  0.13130869    -0.72100
V481        V  0.28232850  0.98850560  0.07854354     1.35200
V482        V  0.26199620  0.53714071  0.16267480     1.35200
C483        C  0.35919862  0.93676622  0.10145263     0.77300
C484        C  0.18107027  0.58626349  0.14556241     0.77400
C485        C  0.32896367  0.05729264  0.07538141     0.77300
C486        C  0.25022822  0.94860083  0.14220522     0.77200
O487        O  0.05500263  0.83920246  0.31936055    -0.71900
O488        O  0.48823417  0.81883036  0.20326218    -0.72100
O489        O  0.05284905  0.84155581  0.23074504    -0.72000
O490        O  0.97085554  0.82667924  0.32107780    -0.72000
O491        O  0.44542832  0.88533964  0.31342223    -0.72000
O492        O  0.52282968  0.91437015  0.22959332    -0.72000
O493        O  0.44742493  0.88739300  0.22615512    -0.71900
O494        O  0.03504938  0.91421039  0.33123960    -0.72100
V495        V  0.01117400  0.83557428  0.27666797     1.35200
V496        V  0.48644493  0.89868914  0.27162669     1.35200
C497        C  0.06053457  0.87850254  0.33937695     0.77300
C498        C  0.45724888  0.85080133  0.19646405     0.77400
C499        C  0.55721200  0.88629886  0.21071638     0.77300
C500        C  0.44419015  0.84324949  0.31129206     0.77200
O501        O  0.17252158  0.99186355  0.40255818    -0.71900
O502        O  0.25844399  0.54352142  0.35263520    -0.72100
O503        O  0.20498594  0.48141637  0.32818847    -0.72000
O504        O  0.23831998  0.54084527  0.43623296    -0.72000
O505        O  0.28144642  0.00080687  0.43331911    -0.72000
O506        O  0.25539641  0.94940902  0.31920474    -0.72000
O507        O  0.31517696  0.48683134  0.34950971    -0.71900
O508        O  0.23025888  0.93654742  0.39963708    -0.72100
V509        V  0.22254816  0.50989910  0.38197353     1.35200
V510        V  0.26663267  0.97560011  0.37657673     1.35200
C511        C  0.18788359  0.94967280  0.40435216     0.77300
C512        C  0.30004829  0.52809054  0.34454734     0.77400
C513        C  0.22217403  0.96828335  0.30166609     0.77300
C514        C  0.27503990  0.52499835  0.45042579     0.77200
O515        O  0.36407145  0.65573806  0.45581042    -0.71900
O516        O  0.41077188  0.73163026  0.05124796    -0.72100
O517        O  0.33279133  0.72552141  0.02044312    -0.72000
O518        O  0.44929741  0.65420094  0.98867767    -0.72000
O519        O  0.44789922  0.70902998  0.43158084    -0.72000
O520        O  0.33396831  0.77908082  0.47976419    -0.72000
O521        O  0.42559555  0.77335715  0.00268341    -0.71900
O522        O  0.36621890  0.70477696  0.41108360    -0.72100
V523        V  0.39095792  0.69079842  0.00321408     1.35200
V524        V  0.39078168  0.74276693  0.45604118     1.35200
C525        C  0.36090263  0.66504869  0.41669746     0.77300
C526        C  0.42158741  0.76879242  0.04315570     0.77400
C527        C  0.32202905  0.76494953  0.00984379     0.77300
C528        C  0.47268148  0.66152521  0.95627747     0.77200
C529        C  0.36454700  0.07465775  0.01160721    -0.26400
C530        C  0.33774207  0.09416122  0.05147498    -0.14500
C531        C  0.29338392  0.62375615  0.04196386     0.36100
C532        C  0.27185636  0.60082424  0.50106285    -0.25900
C533        C  0.28725707  0.07222273  0.47772832    -0.15100
C534        C  0.33493254  0.06326799  0.47280469     0.37200
N535        N  0.35962852  0.03281650  0.43447588    -0.89400
H536        H  0.40007584  0.06231849  0.01275290     0.18300
H537        H  0.24231322  0.61578484  0.48639938     0.18300
N538        N  0.27100574  0.67025787  0.06076668    -0.88400
H539        H  0.38011038  0.00554288  0.44547848     0.35700
H540        H  0.38028884  0.05127855  0.41946555     0.40800
H541        H  0.25058051  0.66917074  0.08904895     0.40400
H542        H  0.25006834  0.68382975  0.03813593     0.35300
C543        C  0.24158777  0.89436572  0.18897223    -0.26400
C544        C  0.22024264  0.92683252  0.16503347    -0.14500
C545        C  0.16051166  0.45600931  0.22478881     0.36100
C546        C  0.16288834  0.43907656  0.26436074    -0.25900
C547        C  0.21364604  0.94857090  0.25672357    -0.15100
C548        C  0.23696455  0.90426875  0.23544354     0.37200
N549        N  0.26012396  0.87192269  0.26016707    -0.89400
H550        H  0.26904993  0.86722760  0.17290319     0.18300
H551        H  0.13865966  0.45710948  0.29180852     0.18300
N552        N  0.12992043  0.49845501  0.22383203    -0.88400
H553        H  0.29408274  0.86514473  0.24908832     0.35700
H554        H  0.24842671  0.84096007  0.25236802     0.40800
H555        H  0.13823144  0.52455674  0.24765466     0.40400
H556        H  0.09793857  0.49448363  0.23424136     0.35300
C557        C  0.53786599  0.62574860  0.45728272    -0.26400
C558        C  0.51660491  0.63225637  0.94008395    -0.14500
C559        C  0.53353609  0.63241467  0.89646525     0.36100
C560        C  0.03423691  0.67542862  0.93171705    -0.25900
C561        C  0.05540401  0.68065767  0.97121285    -0.15100
C562        C  0.04535574  0.65722782  0.51138428     0.37200
N563        N  0.07209044  0.65572356  0.54855016    -0.89400
H564        H  0.52326684  0.61462559  0.48579408     0.18300
H565        H  0.04456349  0.68985492  0.90344066     0.18300
N566        N  0.50900830  0.61926783  0.85936728    -0.88400
H567        H  0.10445803  0.63841018  0.53582894     0.35700
H568        H  0.06061417  0.63591090  0.57018158     0.40800
H569        H  0.52861117  0.61747774  0.82972669     0.40400
H570        H  0.48038852  0.64460176  0.86091879     0.35300
C571        C  0.26117508  0.83731406  0.02203572    -0.26400
C572        C  0.28655979  0.80016754  0.03819361    -0.14500
C573        C  0.27214188  0.79999322  0.58925771     0.36100
C574        C  0.23288075  0.82660416  0.61363961    -0.25900
C575        C  0.20524436  0.84601794  0.08383677    -0.15100
C576        C  0.22202596  0.86348929  0.04760582     0.37200
N577        N  0.19475382  0.90020615  0.03081742    -0.89400
H578        H  0.27015203  0.84436855  0.98937174     0.18300
H579        H  0.22302955  0.81913397  0.64591828     0.18300
N580        N  0.30218009  0.76886269  0.61004916    -0.88400
H581        H  0.21342682  0.92595174  0.02883179     0.35700
H582        H  0.16693657  0.91528390  0.05357538     0.40800
H583        H  0.28409929  0.74668230  0.62266807     0.40400
H584        H  0.31378448  0.78838913  0.63724094     0.35300
C585        C  0.04652298  0.50572044  0.16189751    -0.26400
C586        C  0.00012083  0.52021017  0.17139569    -0.14500
C587        C  0.53160111  0.46028969  0.12050474     0.36100
C588        C  0.60261635  0.93658993  0.21953680    -0.25900
C589        C  0.58776478  0.90614986  0.18627623    -0.15100
C590        C  0.05435658  0.91279540  0.15438863     0.37200
N591        N  0.03653778  0.88469571  0.11961027    -0.89400
H592        H  0.06800357  0.53100927  0.16319718     0.18300
H593        H  0.62162999  0.92222080  0.24479106     0.18300
N594        N  0.48980603  0.47047200  0.10156632    -0.88400
H595        H  0.04613556  0.89342067  0.08920728     0.35700
H596        H  0.00159768  0.89327394  0.12452542     0.40800
H597        H  0.46796216  0.45197430  0.11456115     0.40400
H598        H  0.49532698  0.45832336  0.06706456     0.35300
C599        C  0.37931779  0.82056956  0.28583323    -0.26400
C600        C  0.40308403  0.82864914  0.32376996    -0.14500
C601        C  0.93770471  0.81573144  0.40337712     0.36100
C602        C  0.94298010  0.76959777  0.38096414    -0.25900
C603        C  0.91989872  0.76000323  0.34251271    -0.15100
C604        C  0.38614119  0.77506892  0.26129489     0.37200
N605        N  0.37338342  0.76662703  0.21651028    -0.89400
H606        H  0.36791288  0.84899056  0.26872853     0.18300
H607        H  0.96905323  0.74385246  0.38986406     0.18300
N608        N  0.96448397  0.82769289  0.43910519    -0.88400
H609        H  0.38902285  0.78643403  0.19781261     0.35700
H610        H  0.33881835  0.77840864  0.21755628     0.40800
H611        H  0.99806169  0.81358367  0.42816783     0.40400
H612        H  0.95577043  0.81173947  0.46537142     0.35300
C613        C  0.39956707  0.58050963  0.80144335     0.03000
C614        C  0.37317893  0.54638539  0.80380864    -0.13200
C615        C  0.34336544  0.55047084  0.84234867     0.00500
C616        C  0.34208132  0.58732254  0.87884275    -0.11700
C617        C  0.36771119  0.62144663  0.87698228     0.03000
C618        C  0.39485421  0.61836120  0.83738744    -0.11100
H619        H  0.37559846  0.51751993  0.77630367     0.08600
H620        H  0.32042922  0.58979634  0.90879293     0.06100
H621        H  0.41394639  0.64509072  0.83500743     0.06000
C622        C  0.42017338  0.81657267  0.57454601     0.03000
C623        C  0.39997110  0.86150507  0.56835418    -0.13200
C624        C  0.39533939  0.90062842  0.60264422     0.00500
C625        C  0.41266986  0.89446826  0.64341794    -0.11700
C626        C  0.43383037  0.85044374  0.65084027     0.03000
C627        C  0.43716595  0.81132140  0.61615463    -0.11100
H628        H  0.38493957  0.86560048  0.53746308     0.08600
H629        H  0.40901283  0.92441039  0.67001311     0.06100
H630        H  0.45289057  0.77726472  0.62141150     0.06000
C631        C  0.16448442  0.91195948  0.90396586     0.03000
C632        C  0.12897179  0.91592922  0.87544686    -0.13200
C633        C  0.09889712  0.88485850  0.87240263     0.00500
C634        C  0.10192464  0.85250941  0.90099596    -0.11700
C635        C  0.13567300  0.84831218  0.93029374     0.03000
C636        C  0.16856502  0.87625894  0.92968327    -0.11100
H637        H  0.12628626  0.94144943  0.85381785     0.08600
H638        H  0.07740278  0.83034470  0.90063567     0.06100
H639        H  0.19632586  0.87124370  0.94995715     0.06000
C640        C  0.14527850  0.63296420  0.65979804     0.03000
C641        C  0.10598315  0.63532660  0.68669497    -0.13200
C642        C  0.06740055  0.66965012  0.68578086     0.00500
C643        C  0.06960462  0.70255661  0.65727731    -0.11700
C644        C  0.11005668  0.70087858  0.63071242     0.03000
C645        C  0.14718064  0.66599584  0.63291469    -0.11100
H646        H  0.10476218  0.60865902  0.70660975     0.08600
H647        H  0.04007890  0.72813426  0.65487935     0.06100
H648        H  0.17771386  0.66304596  0.61187926     0.06000
O649        O  0.03004883  0.65180930  0.74941748    -0.71900
O650        O  0.47498444  0.57543694  0.77400079    -0.72100
O651        O  0.00006608  0.57387892  0.74213344    -0.72000
O652        O  0.96494009  0.69142862  0.81593653    -0.72000
O653        O  0.44483051  0.67231904  0.72920844    -0.72000
O654        O  0.49138283  0.55372356  0.65626433    -0.72000
O655        O  0.42534940  0.58927382  0.72710265    -0.71900
O656        O  0.98668141  0.67322165  0.69949844    -0.72900
V657        V  0.98162259  0.63301283  0.77821896     1.35200
V658        V  0.46885000  0.61287142  0.69367046     1.35200
C659        C  0.02579083  0.66649591  0.71300538     0.77300
C660        C  0.43478910  0.57850620  0.76460654     0.77400
C661        C  0.98458780  0.56495106  0.70470328     0.77300
C662        C  0.93452779  0.72171884  0.80607261     0.77200
O663        O  0.12051513  0.71165853  0.97341016    -0.71900
O664        O  0.18753059  0.77825167  0.04862824    -0.72100
O665        O  0.14376676  0.71556106  0.56302769    -0.72000
O666        O  0.16238391  0.78398869  0.96736550    -0.72000
O667        O  0.09709027  0.82673989  0.99101982    -0.72000
O668        O  0.08829356  0.76877020  0.59668358    -0.72000
O669        O  0.12683391  0.83962596  0.57675844    -0.71900
O670        O  0.05730685  0.75832313  0.51628515    -0.72100
V671        V  0.15265714  0.74704868  0.01172210     1.35200
V672        V  0.09232613  0.79871890  0.54594587     1.35200
C673        C  0.07689176  0.72151859  0.49005302     0.77300
C674        C  0.16850232  0.82432854  0.57537097     0.77400
C675        C  0.11409653  0.73014727  0.59583479     0.77300
C676        C  0.13209048  0.81841830  0.96432129     0.77200
O677        O  0.33650929  0.94556540  0.57031749    -0.71900
O678        O  0.18612371  0.56042405  0.62079840    -0.72100
O679        O  0.31278325  0.03090096  0.55131752    -0.72000
O680        O  0.25573187  0.95229013  0.60589471    -0.72000
O681        O  0.23487390  0.50661180  0.69921270    -0.72000
O682        O  0.29610374  0.57838367  0.63555912    -0.72000
O683        O  0.21422852  0.59205127  0.67973371    -0.71900
O684        O  0.36005453  0.98092613  0.63011184    -0.72100
V685        V  0.28398418  0.99287231  0.57992869     1.35200
V686        V  0.26469905  0.54195001  0.66658991     1.35200
C687        C  0.36429627  0.94502943  0.59971388     0.77300
C688        C  0.18288824  0.59298575  0.65409986     0.77400
C689        C  0.32521133  0.06554054  0.57322776     0.77300
C690        C  0.26377170  0.94880151  0.64519317     0.77200
O691        O  0.06229699  0.84535565  0.81469636    -0.71900
O692        O  0.48864199  0.81654493  0.69674637    -0.72100
O693        O  0.04935230  0.84864602  0.72688261    -0.72000
O694        O  0.97919178  0.83129123  0.82630010    -0.72000
O695        O  0.45613532  0.87831773  0.81222633    -0.72000
O696        O  0.52080341  0.91160876  0.71888491    -0.72000
O697        O  0.44641058  0.88303507  0.72529324    -0.71900
O698        O  0.03548403  0.91897358  0.83634723    -0.72100
V699        V  0.01418363  0.84124979  0.77755640     1.35200
V700        V  0.49028256  0.89442785  0.76546225     1.35200
C701        C  0.06464024  0.88357594  0.83919773     0.77300
C702        C  0.45601295  0.84858843  0.69333328     0.77400
C703        C  0.55470580  0.88443412  0.69729997     0.77300
C704        C  0.45864541  0.83563263  0.81171178     0.77200
O705        O  0.18516434  0.98534913  0.89975458    -0.71900
O706        O  0.27000201  0.53688068  0.85326797    -0.72100
O707        O  0.21256539  0.47865348  0.83073504    -0.72000
O708        O  0.24655498  0.54036466  0.93737065    -0.72000
O709        O  0.28849467  0.99383081  0.93632351    -0.72000
O710        O  0.27564087  0.93289195  0.82127039    -0.72000
O711        O  0.32356418  0.47811228  0.85421278    -0.71900
O712        O  0.24019031  0.92803166  0.90034610    -0.72100
V713        V  0.23036769  0.50815795  0.88387721     1.35200
V714        V  0.28022931  0.96448032  0.87877351     1.35200
C715        C  0.19811191  0.94330223  0.90313266     0.77300
C716        C  0.31126440  0.51917038  0.84715557     0.77400
C717        C  0.24227003  0.94620506  0.80102020     0.77300
C718        C  0.28194313  0.52330352  0.95313171     0.77200
O719        O  0.37064601  0.64906956  0.95645587    -0.71900
O720        O  0.41036379  0.73782366  0.54631033    -0.72100
O721        O  0.32973555  0.73018909  0.52419359    -0.72000
O722        O  0.44526448  0.66318331  0.47940111    -0.72000
O723        O  0.45855253  0.69646160  0.93877857    -0.72000
O724        O  0.34489567  0.77394556  0.97773711    -0.72000
O725        O  0.41582881  0.78300978  0.49842906    -0.71900
O726        O  0.37835870  0.69680023  0.91154212    -0.72100
V727        V  0.38726965  0.69739053  0.50044441     1.35200
V728        V  0.40161318  0.73406933  0.95840972     1.35200
C729        C  0.37068851  0.65773685  0.91694508     0.77300
C730        C  0.41738913  0.77650197  0.53830805     0.77400
C731        C  0.31542511  0.76925527  0.51401936     0.77300
C732        C  0.46555058  0.67363833  0.44658404     0.77200
C733        C  0.35779964  0.08293557  0.50789239    -0.26400
C734        C  0.33259782  0.10250856  0.54871665    -0.14500
C735        C  0.28344921  0.62497612  0.54104200     0.36100
C736        C  0.28187492  0.59997452  0.00150435    -0.25900
C737        C  0.29537051  0.06624003  0.97720245    -0.15100
C738        C  0.34302945  0.05566657  0.97512202     0.37200
N739        N  0.36889400  0.02350870  0.93851558    -0.89400
H740        H  0.39373058  0.07191913  0.50719125     0.18300
H741        H  0.25454059  0.61631919  0.98477675     0.18300
N742        N  0.25438036  0.66730615  0.56245372    -0.88400
H743        H  0.38692237  0.99594171  0.95121296     0.35700
H744        H  0.39186864  0.04028602  0.92455176     0.40800
H745        H  0.25905547  0.69296610  0.54425299     0.40400
H746        H  0.26380110  0.67740589  0.59458978     0.35300
C747        C  0.27771227  0.88713630  0.68627596    -0.26400
C748        C  0.24644001  0.91659395  0.66720616    -0.14500
C749        C  0.16491573  0.45956772  0.73647608     0.36100
C750        C  0.16587802  0.43658542  0.77248361    -0.25900
C751        C  0.23630030  0.92028312  0.75722824    -0.15100
C752        C  0.27268305  0.88863610  0.73217660     0.37200
N753        N  0.30706786  0.86309848  0.75340531    -0.89400
H754        H  0.30960944  0.87073044  0.66784638     0.18300
H755        H  0.14145663  0.45179120  0.80041030     0.18300
N756        N  0.13382496  0.50235792  0.73853710    -0.88400
H757        H  0.33738472  0.87242703  0.74498290     0.35700
H758        H  0.30965105  0.82792347  0.74008817     0.40800
H759        H  0.13955775  0.52573188  0.76637112     0.40400
H760        H  0.10159084  0.49618243  0.74426812     0.35300
C761        C  0.54739429  0.62241799  0.97117127    -0.26400
C762        C  0.51057453  0.64821035  0.42879157    -0.14500
C763        C  0.53078891  0.65784118  0.38978015     0.36100
C764        C  0.03370327  0.67652847  0.43796856    -0.25900
C765        C  0.05359386  0.68345115  0.47833238    -0.15100
C766        C  0.04587522  0.65541619  0.00456341     0.37200
N767        N  0.07478721  0.64992489  0.03957966    -0.89400
H768        H  0.53643168  0.61710594  0.00398725     0.18300
H769        H  0.04266665  0.69257547  0.41034018     0.18300
N770        N  0.50485561  0.67033676  0.35457597    -0.88400
H771        H  0.10557199  0.63001488  0.02470254     0.35700
H772        H  0.06246749  0.63093896  0.06149116     0.40800
H773        H  0.51854832  0.64682051  0.32548583     0.40400
H774        H  0.50908127  0.70332049  0.35015818     0.35300
C775        C  0.25654741  0.84234913  0.52895519    -0.26400
C776        C  0.28065247  0.80368956  0.54393434    -0.14500
C777        C  0.27772679  0.79712556  0.08359717     0.36100
C778        C  0.23700575  0.82118570  0.10665276    -0.25900
C779        C  0.20109508  0.85198529  0.59106958    -0.15100
C780        C  0.21820185  0.86935258  0.55493506     0.37200
N781        N  0.19161322  0.90636107  0.53795055    -0.89400
H782        H  0.26559712  0.84984346  0.49648821     0.18300
H783        H  0.22659693  0.81185034  0.13789999     0.18300
N784        N  0.30910601  0.76874475  0.10575508    -0.88400
H785        H  0.21011320  0.93249170  0.53775960     0.35700
H786        H  0.16267721  0.92062108  0.55943286     0.40800
H787        H  0.29303326  0.74467863  0.11784916     0.40400
H788        H  0.31835109  0.79008176  0.13320143     0.35300
C789        C  0.05001048  0.50666349  0.66880683    -0.26400
C790        C  0.00320927  0.52039565  0.67540536    -0.14500
C791        C  0.53004056  0.45288847  0.61464023     0.36100
C792        C  0.60141739  0.93283775  0.70514950    -0.25900
C793        C  0.58396036  0.90497320  0.67179607    -0.15100
C794        C  0.03213069  0.91657153  0.65214438     0.37200
N795        N  0.01269122  0.88348481  0.62355772    -0.89400
H796        H  0.07110575  0.53237462  0.67210144     0.18300
H797        H  0.62198853  0.91621476  0.72813834     0.18300
N798        N  0.48692266  0.46594550  0.59914288    -0.88400
H799        H  0.98596557  0.90051728  0.60870526     0.35700
H800        H  0.99960977  0.86289395  0.64332438     0.40800
H801        H  0.46428858  0.45120370  0.61600715     0.40400
H802        H  0.48879550  0.45166157  0.56509217     0.35300
C803        C  0.39438586  0.80327225  0.81459706    -0.26400
C804        C  0.42826300  0.81745391  0.83972087    -0.14500
C805        C  0.93460732  0.81764775  0.90206410     0.36100
C806        C  0.93705083  0.77201562  0.87960709    -0.25900
C807        C  0.91701892  0.76449745  0.83890892    -0.15100
C808        C  0.40221664  0.75742706  0.79066484     0.37200
N809        N  0.37397113  0.74412734  0.75672728    -0.89400
H810        H  0.36916873  0.82913407  0.80455166     0.18300
H811        H  0.95861065  0.74402824  0.89097371     0.18300
N812        N  0.95953838  0.82715301  0.93989963    -0.88400
H813        H  0.37484736  0.76546642  0.73292017     0.35700
H814        H  0.34123829  0.75021034  0.77155565     0.40800
H815        H  0.99287646  0.81048412  0.93116870     0.40400
H816        H  0.94698486  0.81235929  0.96541121     0.35300
C817        C  0.89544827  0.10799533  0.33248282     0.03000
C818        C  0.86642006  0.07586386  0.32853785    -0.13200
C819        C  0.83149900  0.07992649  0.36242407     0.00500
C820        C  0.82750974  0.11508392  0.40111721    -0.11700
C821        C  0.85718982  0.14608256  0.40649737     0.03000
C822        C  0.88884924  0.14366477  0.37053610    -0.11100
H823        H  0.87083167  0.04824994  0.29958987     0.08600
H824        H  0.80107528  0.11849267  0.42708466     0.06100
H825        H  0.90906820  0.16981968  0.37222587     0.06000
C826        C  0.87996420  0.32741903  0.13044568     0.03000
C827        C  0.84369381  0.36462409  0.13371849    -0.13200
C828        C  0.84039249  0.40570563  0.16510806     0.00500
C829        C  0.87318031  0.40890291  0.19541568    -0.11700
C830        C  0.90956472  0.37170064  0.19381083     0.03000
C831        C  0.91280978  0.33085183  0.16090396    -0.11100
H832        H  0.81926064  0.36277970  0.10917406     0.08600
H833        H  0.87052431  0.44042260  0.21984661     0.06100
H834        H  0.94163531  0.30287507  0.15767563     0.06000
C835        C  0.65920466  0.39453962  0.37311610     0.03000
C836        C  0.62759728  0.39899689  0.34135012    -0.13200
C837        C  0.59616727  0.37001017  0.33640621     0.00500
C838        C  0.59633550  0.33659056  0.36370602    -0.11700
C839        C  0.62739703  0.33211153  0.39589975     0.03000
C840        C  0.65901889  0.36110467  0.40040735    -0.11100
H841        H  0.62784585  0.42466612  0.32009320     0.08600
H842        H  0.57238508  0.31390356  0.35973693     0.06100
H843        H  0.68311274  0.35789008  0.42516315     0.06000
C844        C  0.66401596  0.10451124  0.11471357     0.03000
C845        C  0.62828557  0.11340208  0.14902419    -0.13200
C846        C  0.58624032  0.14194011  0.14479140     0.00500
C847        C  0.58230523  0.16553216  0.10845461    -0.11700
C848        C  0.61844835  0.15954678  0.07588297     0.03000
C849        C  0.65729566  0.12669135  0.07807402    -0.11100
H850        H  0.63205093  0.09633380  0.17757984     0.08600
H851        H  0.55119007  0.18878329  0.10581252     0.06100
H852        H  0.68338579  0.11910310  0.05154723     0.06000
O853        O  0.54751359  0.14723049  0.21736290    -0.71900
O854        O  0.97150905  0.11115521  0.31344717    -0.72100
O855        O  0.52804658  0.07369698  0.24345903    -0.72000
O856        O  0.47036896  0.19769903  0.26623953    -0.72000
O857        O  0.95104981  0.18489457  0.24880566    -0.72000
O858        O  0.00186991  0.05840654  0.19668346    -0.72000
O859        O  0.93057285  0.10373148  0.25767020    -0.71900
O860        O  0.50858008  0.13788398  0.16007289    -0.72900
V861        V  0.49896312  0.13518690  0.25318009     1.35200
V862        V  0.97704220  0.12175750  0.22283219     1.35200
C863        C  0.54554359  0.14352248  0.17550959     0.77300
C864        C  0.93420163  0.10581743  0.29929957     0.77400
C865        C  0.52249812  0.04633503  0.20907827     0.77300
C866        C  0.43789587  0.21202106  0.24504540     0.77200
O867        O  0.63940488  0.18494400  0.41911528    -0.71900
O868        O  0.67359412  0.26435239  0.51576246    -0.72100
O869        O  0.65138596  0.18386837  0.01309288    -0.72000
O870        O  0.66040174  0.26992491  0.43104853    -0.72000
O871        O  0.58901088  0.29676583  0.44626765    -0.72000
O872        O  0.58388836  0.21979036  0.03788868    -0.72000
O873        O  0.59831060  0.30534186  0.03175457    -0.71900
O874        O  0.57040056  0.20616212  0.95128892    -0.72100
V875        V  0.65527105  0.22549253  0.46826236     1.35200
V876        V  0.58545495  0.25491141  0.99102114     1.35200
C877        C  0.59971641  0.17937789  0.92300181     0.77300
C878        C  0.63858084  0.30367941  0.03956648     0.77400
C879        C  0.61745143  0.18859169  0.04055712     0.77300
C880        C  0.62562941  0.29814046  0.42553747     0.77200
O881        O  0.76829816  0.43897075  0.14772050    -0.71900
O882        O  0.72793211  0.04512968  0.07998063    -0.72100
O883        O  0.76129048  0.46343225  0.06917930    -0.72000
O884        O  0.69695145  0.50699553  0.18255198    -0.72000
O885        O  0.76199905  0.98989885  0.17160006    -0.72000
O886        O  0.81319497  0.07940003  0.12375290    -0.72000
O887        O  0.72889986  0.07258268  0.15052557    -0.71900
O888        O  0.81345789  0.48663237  0.16398786    -0.72100
V889        V  0.72970901  0.48599635  0.12625261     1.35200
V890        V  0.78728441  0.03387239  0.14796319     1.35200
C891        C  0.80551040  0.44594896  0.16060442     0.77300
C892        C  0.70854153  0.07250190  0.11529915     0.77400
C893        C  0.79569887  0.47882450  0.05888442     0.77300
C894        C  0.70645976  0.54060886  0.20886757     0.77200
O895        O  0.56404408  0.33731780  0.27215856    -0.71900
O896        O  0.97579294  0.34175762  0.22564056    -0.72100
O897        O  0.56676259  0.35047351  0.18568060    -0.72000
O898        O  0.47819327  0.32957825  0.26708667    -0.72000
O899        O  0.95906805  0.40014211  0.33028538    -0.72000
O900        O  0.02934427  0.43857026  0.24354501    -0.72000
O901        O  0.94882994  0.41523057  0.24780169    -0.71900
O902        O  0.53846387  0.41035506  0.29909660    -0.72100
V903        V  0.52273499  0.34105116  0.22775041     1.35200
V904        V  0.99598649  0.41756415  0.28715494     1.35200
C905        C  0.56480047  0.37279616  0.30124895     0.77300
C906        C  0.94582689  0.37654803  0.22409019     0.77400
C907        C  0.04402396  0.41023509  0.20771860     0.77300
C908        C  0.96444818  0.35775682  0.33173741     0.77200
O909        O  0.69150767  0.45513201  0.41212885    -0.71900
O910        O  0.75788217  0.06338184  0.36424002    -0.72100
O911        O  0.70745256  0.00555276  0.32206447    -0.72000
O912        O  0.72729720  0.05152722  0.44138531    -0.72000
O913        O  0.80350969  0.43402188  0.36289123    -0.72000
O914        O  0.70385659  0.50970753  0.32615372    -0.72000
O915        O  0.81235338  0.00461101  0.36185347    -0.71900
O916        O  0.71874705  0.42469875  0.34388120    -0.72100
V917        V  0.71712157  0.02692327  0.38170354     1.35200
V918        V  0.75262516  0.47209617  0.34536081     1.35200
C919        C  0.69182304  0.42536942  0.37704017     0.77300
C920        C  0.79955700  0.04734134  0.36049742     0.77400
C921        C  0.67671442  0.53975157  0.35409897     0.77300
C922        C  0.76362484  0.03319992  0.45509947     0.77200
O923        O  0.85475298  0.16734809  0.48783694    -0.71900
O924        O  0.87622630  0.25058757  0.09051769    -0.72100
O925        O  0.80058254  0.25008451  0.05309757    -0.72000
O926        O  0.91791716  0.18009869  0.02152923    -0.72000
O927        O  0.94343059  0.22422337  0.48799175    -0.72000
O928        O  0.82313719  0.28684310  0.51596590    -0.72000
O929        O  0.88919244  0.30254551  0.05220032    -0.71900
O930        O  0.86888142  0.21811058  0.44885393    -0.72100
V931        V  0.85931792  0.21640748  0.03632060     1.35200
V932        V  0.88321388  0.25441408  0.50224182     1.35200
C933        C  0.85875466  0.17898348  0.44971943     0.77300
C934        C  0.88466404  0.29066577  0.08975940     0.77400
C935        C  0.78851625  0.28884367  0.04166740     0.77300
C936        C  0.94424675  0.19383847  0.99588839     0.77200
C937        C  0.82394815  0.41007706  0.99951386    -0.26400
C938        C  0.82394810  0.45689989  0.01714798    -0.14500
C939        C  0.79024853  0.13195765  0.04844197     0.36100
C940        C  0.77268335  0.10413721  0.50955080    -0.25900
C941        C  0.84773546  0.41686579  0.42301494    -0.15100
C942        C  0.84029536  0.38461449  0.44952876     0.37200
N943        N  0.83091240  0.34097777  0.42897225    -0.89400
H944        H  0.81126813  0.38842477  0.02017142     0.18300
H945        H  0.73977249  0.12207547  0.50500609     0.18300
N946        N  0.76814736  0.17089263  0.08133866    -0.88400
H947        H  0.79812834  0.33961640  0.43964541     0.35700
H948        H  0.85257616  0.31487860  0.44040823     0.40800
H949        H  0.78940028  0.17783076  0.10639656     0.40400
H950        H  0.74045904  0.16160143  0.09651768     0.35300
C951        C  0.63992358  0.54330092  0.26076567    -0.26400
C952        C  0.67725177  0.56223209  0.24975044    -0.14500
C953        C  0.68308295  0.96239224  0.19116407     0.36100
C954        C  0.68759623  0.97407907  0.23660233    -0.25900
C955        C  0.64505446  0.57419796  0.33725106    -0.15100
C956        C  0.62069034  0.55321664  0.30477931     0.37200
N957        N  0.58537550  0.53075626  0.31693256    -0.89400
H958        H  0.62902228  0.51702785  0.23756093     0.18300
H959        H  0.66732026  0.00561962  0.25527419     0.18300
N960        N  0.65234870  0.99343418  0.17075285    -0.88400
H961        H  0.55702551  0.54476425  0.30229179     0.35700
H962        H  0.57732802  0.53944894  0.35154428     0.40800
H963        H  0.64572587  0.97561271  0.13992343     0.40400
H964        H  0.66769417  0.02039896  0.16456576     0.35300
C965        C  0.03139810  0.13434563  0.50351612    -0.26400
C966        C  0.98667452  0.16443255  0.97513204    -0.14500
C967        C  0.99997891  0.16497797  0.93031477     0.36100
C968        C  0.56213701  0.17993103  0.85929525    -0.25900
C969        C  0.58403193  0.15018687  0.88569829    -0.15100
C970        C  0.55592651  0.12748686  0.39596562     0.37200
N971        N  0.57861401  0.08696176  0.41056803    -0.89400
H972        H  0.02124937  0.12888526  0.53650700     0.18300
H973        H  0.58186535  0.19822026  0.84057467     0.18300
N974        N  0.96710588  0.17398536  0.89972344    -0.88400
H975        H  0.56530650  0.05880986  0.39559177     0.35700
H976        H  0.57165246  0.09129447  0.44520164     0.40800
H977        H  0.98287678  0.16955676  0.86777097     0.40400
H978        H  0.95099850  0.20854712  0.90841699     0.35300
C979        C  0.72374339  0.35137274  0.03617228    -0.26400
C980        C  0.74515984  0.31832944  0.05985786    -0.14500
C981        C  0.72980306  0.29298933  0.59924023     0.36100
C982        C  0.68335289  0.30899273  0.60456520    -0.25900
C983        C  0.65362395  0.34095731  0.06830962    -0.15100
C984        C  0.67713637  0.36548505  0.04278175     0.37200
N985        N  0.65451403  0.39416579  0.01436041    -0.89400
H986        H  0.74176693  0.36185964  0.00934947     0.18300
H987        H  0.66319043  0.29561544  0.62770379     0.18300
N988        N  0.75078697  0.26545313  0.62930926    -0.88400
H989        H  0.66247264  0.42701854  0.02290908     0.35700
H990        H  0.61991304  0.39854880  0.02127716     0.40800
H991        H  0.73422830  0.23787255  0.63006779     0.40400
H992        H  0.74553468  0.28583425  0.66135409     0.35300
C993        C  0.54852986  0.97132870  0.15756688    -0.26400
C994        C  0.55058994  0.99986551  0.19877824    -0.14500
C995        C  0.08591707  0.96495421  0.22651395     0.36100
C996        C  0.99319458  0.43980158  0.15731629    -0.25900
C997        C  0.03860936  0.42743882  0.16501097    -0.15100
C998        C  0.61463010  0.43961168  0.15485052     0.37200
N999        N  0.65689205  0.42993921  0.17304369    -0.89400
H1000       H  0.52839971  0.98433943  0.13248895     0.18300
H1001       H  0.97203910  0.41445228  0.15640392     0.18300
N1002       N  0.09236570  0.98504321  0.27165656    -0.88400
H1003       H  0.67969301  0.40829619  0.14823441     0.35700
H1004       H  0.65356690  0.41243241  0.19966496     0.40800
H1005       H  0.10481025  0.01517270  0.27179865     0.40400
H1006       H  0.11591098  0.96246749  0.28537493     0.35300
C1007       C  0.90079391  0.32518604  0.32548814    -0.26400
C1008       C  0.93142314  0.33889388  0.35551429    -0.14500
C1009       C  0.40155568  0.32292997  0.32481157     0.36100
C1010       C  0.40719207  0.27509789  0.30895330    -0.25900
C1011       C  0.41033121  0.25827299  0.26246441    -0.15100
C1012       C  0.91109773  0.27985658  0.30001389     0.37200
N1013       N  0.88771967  0.26772493  0.26158703    -0.89400
H1014       H  0.87742892  0.35143095  0.31349483     0.18300
H1015       H  0.41394308  0.25137196  0.33199752     0.18300
N1016       N  0.40294366  0.34130940  0.37116146    -0.88400
H1017       H  0.89131302  0.29067902  0.23990301     0.35700
H1018       H  0.85371998  0.27275448  0.27216559     0.40800
H1019       H  0.43315923  0.32604609  0.38168717     0.40400
H1020       H  0.37685478  0.33206765  0.38908059     0.35300
C1021       C  0.88102906  0.12431349  0.82695134     0.03000
C1022       C  0.85195099  0.09235532  0.82428309    -0.13200
C1023       C  0.81774271  0.09686911  0.85895306     0.00500
C1024       C  0.81488885  0.13150973  0.89758625    -0.11700
C1025       C  0.84422642  0.16269905  0.90170810     0.03000
C1026       C  0.87498889  0.16050589  0.86474463    -0.11100
H1027       H  0.85618654  0.06406028  0.79595948     0.08600
H1028       H  0.79021910  0.13357470  0.92507549     0.06100
H1029       H  0.89552476  0.18637946  0.86578709     0.06000
C1030       C  0.88824818  0.31992001  0.63135273     0.03000
C1031       C  0.85077857  0.35548816  0.63312570    -0.13200
C1032       C  0.84476304  0.39694470  0.66437665     0.00500
C1033       C  0.87622244  0.40253559  0.69574026    -0.11700
C1034       C  0.91361404  0.36700035  0.69595451     0.03000
C1035       C  0.91947368  0.32539638  0.66341293    -0.11100
H1036       H  0.82748499  0.35207144  0.60760871     0.08600
H1037       H  0.87190205  0.43483309  0.71944772     0.06100
H1038       H  0.94902691  0.29855746  0.66172286     0.06000
C1039       C  0.65651998  0.39013767  0.87164532     0.03000
C1040       C  0.62587700  0.39322124  0.83888684    -0.13200
C1041       C  0.59474244  0.36389183  0.83369173     0.00500
C1042       C  0.59386328  0.33146758  0.86198733    -0.11700
C1043       C  0.62386766  0.32807924  0.89529331     0.03000
C1044       C  0.65549087  0.35739173  0.89975857    -0.11100
H1045       H  0.62653360  0.41830438  0.81707181     0.08600
H1046       H  0.56994590  0.30878354  0.85788166     0.06100
H1047       H  0.67900597  0.35489805  0.92508306     0.06000
C1048       C  0.66644894  0.10675609  0.61026503     0.03000
C1049       C  0.63162057  0.11878244  0.64575284    -0.13200
C1050       C  0.58868841  0.14457022  0.64015320     0.00500
C1051       C  0.58360219  0.16448749  0.60162622    -0.11700
C1052       C  0.61938443  0.15678899  0.56828881     0.03000
C1053       C  0.65844085  0.12469405  0.57135344    -0.11100
H1054       H  0.63668953  0.10582414  0.67651985     0.08600
H1055       H  0.55212576  0.18670846  0.59813907     0.06100
H1056       H  0.68371635  0.11508824  0.54392955     0.06000
O1057       O  0.55215212  0.14946189  0.71354013    -0.71900
O1058       O  0.95899720  0.11860964  0.80828011    -0.72100
O1059       O  0.53558333  0.07301965  0.73638401    -0.72000
O1060       O  0.47630158  0.19725299  0.76720799    -0.72000
O1061       O  0.94922644  0.19577367  0.74819838    -0.72000
O1062       O  0.98606620  0.06958371  0.68851790    -0.72000
O1063       O  0.91795324  0.11923712  0.75238217    -0.71900
O1064       O  0.51107194  0.14087346  0.65785278    -0.72900
V1065       V  0.50594496  0.13489641  0.75037419     1.35200
V1066       V  0.96816000  0.13282110  0.71874038     1.35200
C1067       C  0.54864464  0.14644311  0.67198364     0.77300
C1068       C  0.92080140  0.11913971  0.79394486     0.77400
C1069       C  0.52556044  0.04686343  0.70304322     0.77300
C1070       C  0.44267907  0.21219044  0.74755792     0.77200
O1071       O  0.64014331  0.18249983  0.92553373    -0.71900
O1072       O  0.66794354  0.26949384  0.01988844    -0.72100
O1073       O  0.65259317  0.18072528  0.50542722    -0.72000
O1074       O  0.65715059  0.26913799  0.93417470    -0.72000
O1075       O  0.58486893  0.29121220  0.94485761    -0.72000
O1076       O  0.58564690  0.21757429  0.53140759    -0.72000
O1077       O  0.60493413  0.30203089  0.53262575    -0.71900
O1078       O  0.57028338  0.21274622  0.44547362    -0.72100
V1079       V  0.65296723  0.22661913  0.97360109     1.35200
V1080       V  0.58865019  0.25652357  0.48840514     1.35200
C1081       C  0.59833987  0.18516351  0.41651468     0.77300
C1082       C  0.64574767  0.29751615  0.53926523     0.77400
C1083       C  0.61863942  0.18545575  0.53290408     0.77300
C1084       C  0.62179973  0.29455444  0.92575207     0.77200
O1085       O  0.77413572  0.42756470  0.64132408    -0.71900
O1086       O  0.72983555  0.04558496  0.57770815    -0.72100
O1087       O  0.76923952  0.45387042  0.56352566    -0.72000
O1088       O  0.70091308  0.49386694  0.67462145    -0.72000
O1089       O  0.75703481  0.99346902  0.67347568    -0.72000
O1090       O  0.81584662  0.07510147  0.62153939    -0.72000
O1091       O  0.72985895  0.07495536  0.64794981    -0.71900
O1092       O  0.81579666  0.47715112  0.66411865    -0.72100
V1093       V  0.73597976  0.47476181  0.61955300     1.35200
V1094       V  0.78624646  0.03360454  0.64779145     1.35200
C1095       C  0.80943772  0.43585774  0.65812154     0.77300
C1096       C  0.71065294  0.07472811  0.61202819     0.77400
C1097       C  0.80488011  0.46812315  0.55570917     0.77300
C1098       C  0.70707080  0.52900624  0.70113646     0.77200
O1099       O  0.56190237  0.33121993  0.76955984    -0.71900
O1100       O  0.97845155  0.34122973  0.73209600    -0.72100
O1101       O  0.56290774  0.34269359  0.68233714    -0.72000
O1102       O  0.47562440  0.32630666  0.76732457    -0.72000
O1103       O  0.95699518  0.40318830  0.83515290    -0.72000
O1104       O  0.02758618  0.44154813  0.74862464    -0.72000
O1105       O  0.94878218  0.41445246  0.75081036    -0.71900
O1106       O  0.53826336  0.40472086  0.79582536    -0.72100
V1107       V  0.51943750  0.33561555  0.72609840     1.35200
V1108       V  0.99396175  0.42074787  0.79205648     1.35200
C1109       C  0.56362663  0.36673625  0.79830443     0.77300
C1110       C  0.94798957  0.37463864  0.72796401     0.77400
C1111       C  0.04460308  0.41250544  0.71393181     0.77300
C1112       C  0.96492480  0.36132507  0.83895154     0.77200
O1113       O  0.68567364  0.45417458  0.90950953    -0.71900
O1114       O  0.74539063  0.07871696  0.86849521    -0.72100
O1115       O  0.69418977  0.02121726  0.82734079    -0.72000
O1116       O  0.72219189  0.06022139  0.94542420    -0.72000
O1117       O  0.79958744  0.43632802  0.86412289    -0.72000
O1118       O  0.69927269  0.50346583  0.82064006    -0.72000
O1119       O  0.80181199  0.02063418  0.85670473    -0.71900
O1120       O  0.71680849  0.42069242  0.84332422    -0.72100
V1121       V  0.70831534  0.03879781  0.88614664     1.35200
V1122       V  0.74831502  0.47021142  0.84333444     1.35200
C1123       C  0.68850582  0.42214483  0.87569621     0.77300
C1124       C  0.78701573  0.06363340  0.85913676     0.77400
C1125       C  0.67028736  0.53371519  0.84635647     0.77300
C1126       C  0.76105247  0.04377459  0.95518818     0.77200
O1127       O  0.84127598  0.18152773  0.98302942    -0.71900
O1128       O  0.88862500  0.24138175  0.59311927    -0.72100
O1129       O  0.81273833  0.23662249  0.55711297    -0.72000
O1130       O  0.93190758  0.17076744  0.52492523    -0.72000
O1131       O  0.93274062  0.23362158  0.98618035    -0.72000
O1132       O  0.81423280  0.30102125  0.01409945    -0.72000
O1133       O  0.89795584  0.29315350  0.55317640    -0.71900
O1134       O  0.85850683  0.23258114  0.94588212    -0.72100
V1135       V  0.87226788  0.20483921  0.53997443     1.35200
V1136       V  0.87343708  0.26629018  0.00032445     1.35200
C1137       C  0.84678306  0.19404575  0.94547732     0.77300
C1138       C  0.89479211  0.28205869  0.59127892     0.77400
C1139       C  0.79866897  0.27444964  0.54458477     0.77300
C1140       C  0.95705575  0.18519059  0.49859025     0.77200
C1141       C  0.83199848  0.40002896  0.49588190    -0.26400
C1142       C  0.83378742  0.44617904  0.51440468    -0.14500
C1143       C  0.79691127  0.12241223  0.54413424     0.36100
C1144       C  0.76702156  0.11393226  0.01275565    -0.25900
C1145       C  0.84212304  0.42485811  0.92644157    -0.15100
C1146       C  0.83558289  0.39314442  0.95369234     0.37200
N1147       N  0.83132956  0.34742760  0.93353042    -0.89400
H1148       H  0.81931817  0.37819864  0.51634158     0.18300
H1149       H  0.73382045  0.13110328  0.00812883     0.18300
N1150       N  0.77536306  0.16161695  0.57691227    -0.88400
H1151       H  0.79921804  0.34270792  0.94261348     0.35700
H1152       H  0.85470832  0.32397752  0.94637433     0.40800
H1153       H  0.79675389  0.16802598  0.60202948     0.40400
H1154       H  0.74736861  0.15297268  0.59209065     0.35300
C1155       C  0.63913639  0.52776655  0.74973778    -0.26400
C1156       C  0.67437920  0.55014769  0.73978304    -0.14500
C1157       C  0.67145786  0.98305316  0.69417209     0.36100
C1158       C  0.67367600  0.99476907  0.73992637    -0.25900
C1159       C  0.63748118  0.56398977  0.82602929    -0.15100
C1160       C  0.61741684  0.53803255  0.79286710     0.37200
N1161       N  0.58600692  0.51075044  0.80454339    -0.89400
H1162       H  0.63210152  0.49882975  0.72670957     0.18300
H1163       H  0.65545003  0.02815356  0.75765647     0.18300
N1164       N  0.64406197  0.01428174  0.67133949    -0.88400
H1165       H  0.55739314  0.51973726  0.78809735     0.35700
H1166       H  0.57607515  0.52003967  0.83881489     0.40800
H1167       H  0.62922608  0.99430248  0.64699945     0.40400
H1168       H  0.66483752  0.02967178  0.65354829     0.35300
C1169       C  0.01718729  0.14085272  0.00000184    -0.26400
C1170       C  0.00058087  0.15727961  0.47827825    -0.14500
C1171       C  0.01388141  0.15676145  0.43303071     0.36100
C1172       C  0.55856948  0.18700065  0.35385272    -0.25900
C1173       C  0.58087509  0.15714327  0.37980822    -0.15100
C1174       C  0.55865550  0.12026700  0.90079959     0.37200
N1175       N  0.58063370  0.07841987  0.91355768    -0.89400
H1176       H  0.00684014  0.13493404  0.03275972     0.18300
H1177       H  0.57799384  0.20529729  0.33481857     0.18300
N1178       N  0.98127974  0.16673435  0.40241169    -0.88400
H1179       H  0.56708069  0.05116367  0.89696008     0.35700
H1180       H  0.57322068  0.08099946  0.94792111     0.40800
H1181       H  0.99732375  0.16332619  0.37069260     0.40400
H1182       H  0.96525796  0.20126903  0.41166788     0.35300
C1183       C  0.73472074  0.33905577  0.54161332    -0.26400
C1184       C  0.75463367  0.30298312  0.56273724    -0.14500
C1185       C  0.72152412  0.30991169  0.09788867     0.36100
C1186       C  0.67498630  0.32448947  0.10348766    -0.25900
C1187       C  0.66309995  0.33036659  0.57135529    -0.15100
C1188       C  0.68850226  0.35583039  0.54909503     0.37200
N1189       N  0.66756353  0.38952951  0.52442421    -0.89400
H1190       H  0.75357864  0.35097516  0.51643972     0.18300
H1191       H  0.65598343  0.31209683  0.12835824     0.18300
N1192       N  0.74375608  0.28396760  0.12851550    -0.88400
H1193       H  0.67758020  0.42069629  0.53651470     0.35700
H1194       H  0.63282980  0.39568382  0.53152569     0.40800
H1195       H  0.72886821  0.25526230  0.12958794     0.40400
H1196       H  0.73786847  0.30483373  0.16032912     0.35300
C1197       C  0.54529843  0.97363981  0.64826256    -0.26400
C1198       C  0.54928917  0.99903971  0.69063608    -0.14500
C1199       C  0.07522871  0.97841379  0.70408676     0.36100
C1200       C  0.99767261  0.43960899  0.65997150    -0.25900
C1201       C  0.04227805  0.42822735  0.67054971    -0.15100
C1202       C  0.61410955  0.42666012  0.64579133     0.37200
N1203       N  0.65523208  0.41532897  0.66583151    -0.89400
H1204       H  0.52591154  0.98961755  0.62422478     0.18300
H1205       H  0.97673005  0.41391909  0.65842441     0.18300
N1206       N  0.09363963  0.00759511  0.73784723    -0.88400
H1207       H  0.68120673  0.41413656  0.64168872     0.35700
H1208       H  0.65889096  0.38211723  0.67365239     0.40800
H1209       H  0.12399284  0.01436448  0.72630564     0.40400
H1210       H  0.09702942  0.99223705  0.76615700     0.35300
C1211       C  0.90132774  0.32901825  0.83520385    -0.26400
C1212       C  0.93339141  0.34150530  0.86389733    -0.14500
C1213       C  0.40389612  0.32082351  0.82994112     0.36100
C1214       C  0.41212088  0.27293146  0.81351479    -0.25900
C1215       C  0.41354537  0.25693991  0.76709790    -0.15100
C1216       C  0.91171968  0.28525987  0.80677837     0.37200
N1217       N  0.88543268  0.27478051  0.77020867    -0.89400
H1218       H  0.87582934  0.35578506  0.82667657     0.18300
H1219       H  0.42130772  0.24887755  0.83581093     0.18300
N1220       N  0.40617141  0.33888961  0.87619166    -0.88400
H1221       H  0.88570711  0.29982746  0.75009219     0.35700
H1222       H  0.85245289  0.27766789  0.78330813     0.40800
H1223       H  0.43729192  0.32438809  0.88561267     0.40400
H1224       H  0.38147134  0.32809547  0.89459839     0.35300
C1225       C  0.86431077  0.62278526  0.33709461     0.03000
C1226       C  0.84035144  0.58698110  0.33790796    -0.13200
C1227       C  0.81290290  0.58607759  0.37669007     0.00500
C1228       C  0.81041738  0.62085542  0.41489139    -0.11700
C1229       C  0.83339127  0.65722791  0.41438045     0.03000
C1230       C  0.85959629  0.65820989  0.37506398    -0.11100
H1231       H  0.84414091  0.55931490  0.30905389     0.08600
H1232       H  0.79089282  0.61951533  0.44524602     0.06100
H1233       H  0.87901534  0.68516190  0.37496959     0.06000
C1234       C  0.90102687  0.82801142  0.11309903     0.03000
C1235       C  0.88489536  0.87171074  0.10238668    -0.13200
C1236       C  0.88117541  0.91306309  0.13319774     0.00500
C1237       C  0.89727100  0.91041186  0.17546405    -0.11700
C1238       C  0.91642417  0.86698281  0.18660536     0.03000
C1239       C  0.91665564  0.82563007  0.15550221    -0.11100
H1240       H  0.87180884  0.87324995  0.07015562     0.08600
H1241       H  0.89512342  0.94213736  0.19953196     0.06100
H1242       H  0.93018155  0.79213178  0.16358968     0.06000
C1243       C  0.65154815  0.91729071  0.39531509     0.03000
C1244       C  0.61570113  0.92032778  0.36644277    -0.13200
C1245       C  0.58817546  0.88604752  0.36089824     0.00500
C1246       C  0.59522595  0.85124831  0.38645308    -0.11700
C1247       C  0.62959497  0.84768434  0.41467078     0.03000
C1248       C  0.65841590  0.87969360  0.41827529    -0.11100
H1249       H  0.61121613  0.94724039  0.34659809     0.08600
H1250       H  0.57381657  0.82575344  0.38392981     0.06100
H1251       H  0.68519923  0.87626107  0.44020691     0.06000
C1252       C  0.65511455  0.61026025  0.10998366     0.03000
C1253       C  0.61461487  0.61111607  0.13478897    -0.13200
C1254       C  0.57658635  0.64633322  0.13566705     0.00500
C1255       C  0.57938649  0.68084397  0.10986625    -0.11700
C1256       C  0.62044775  0.68098463  0.08552242     0.03000
C1257       C  0.65823116  0.64620964  0.08701296    -0.11100
H1258       H  0.61288896  0.58440229  0.15436827     0.08600
H1259       H  0.55018174  0.70744522  0.10909147     0.06100
H1260       H  0.68963985  0.64558418  0.06833504     0.06000
O1261       O  0.54111108  0.64204983  0.20558289    -0.71900
O1262       O  0.94025601  0.61077394  0.30883701    -0.72100
O1263       O  0.53195559  0.55740993  0.20848179    -0.72000
O1264       O  0.46993886  0.67476945  0.26813836    -0.72000
O1265       O  0.92352526  0.71337532  0.26954075    -0.72000
O1266       O  0.95239376  0.59515688  0.19306780    -0.72000
O1267       O  0.89145871  0.63712910  0.26548541    -0.71900
O1268       O  0.49867240  0.63990711  0.15057603    -0.72900
V1269       V  0.50023610  0.61606457  0.23757583     1.35200
V1270       V  0.93937851  0.65414692  0.23197607     1.35200
C1271       C  0.53613359  0.64512397  0.16524432     0.77300
C1272       C  0.89979553  0.62134125  0.30101389     0.77400
C1273       C  0.51991836  0.53832925  0.17200670     0.77300
C1274       C  0.43629575  0.69605455  0.25272531     0.77200
O1275       O  0.65283454  0.69717444  0.45032441    -0.71900
O1276       O  0.68013685  0.79470804  0.53213436    -0.72100
O1277       O  0.66046088  0.71193020  0.03208037    -0.72000
O1278       O  0.66603723  0.78491665  0.44745076    -0.72000
O1279       O  0.59535562  0.81272605  0.46701534    -0.72000
O1280       O  0.58996085  0.74250941  0.04807908    -0.72000
O1281       O  0.60683930  0.82754849  0.04459414    -0.71900
O1282       O  0.58089700  0.72834986  0.96088150    -0.72100
V1283       V  0.66494742  0.74713149  0.49186889     1.35200
V1284       V  0.59487328  0.77759868  0.00211899     1.35200
C1285       C  0.61194611  0.69529791  0.94205462     0.77300
C1286       C  0.64718268  0.82810236  0.05115335     0.77400
C1287       C  0.62381727  0.71388176  0.05469275     0.77300
C1288       C  0.63076889  0.81343875  0.44401229     0.77200
O1289       O  0.83076195  0.95258944  0.08843166    -0.71900
O1290       O  0.68823793  0.53089757  0.10487253    -0.72100
O1291       O  0.81752807  0.03289992  0.06007774    -0.72000
O1292       O  0.74444587  0.96253229  0.10520940    -0.72000
O1293       O  0.74152529  0.55490967  0.19923584    -0.72000
O1294       O  0.80497192  0.51263181  0.08519458    -0.72000
O1295       O  0.73167863  0.58030525  0.12141733    -0.71900
O1296       O  0.84418282  0.99440708  0.14992731    -0.72100
V1297       V  0.78053538  0.99937693  0.08427763     1.35200
V1298       V  0.77219789  0.53268818  0.14203212     1.35200
C1299       C  0.85261040  0.95593642  0.12277389     0.77300
C1300       C  0.69390894  0.57226656  0.11043919     0.77400
C1301       C  0.82339741  0.07074609  0.08189626     0.77300
C1302       C  0.74438013  0.96143825  0.14594086     0.77200
O1303       O  0.55537390  0.83939862  0.30489566    -0.71900
O1304       O  0.96867913  0.83008437  0.23272235    -0.72100
O1305       O  0.56552287  0.84574669  0.21866968    -0.72000
O1306       O  0.47623097  0.81268819  0.29009786    -0.72000
O1307       O  0.95004817  0.90108361  0.34364569    -0.72000
O1308       O  0.02152753  0.91462182  0.24423647    -0.72000
O1309       O  0.93985996  0.90298494  0.25570053    -0.71900
O1310       O  0.52685599  0.91300307  0.31675652    -0.72100
V1311       V  0.52060093  0.83011950  0.25510226     1.35200
V1312       V  0.98722907  0.90684511  0.29358617     1.35200
C1313       C  0.55559831  0.88003045  0.32581914     0.77300
C1314       C  0.94137452  0.86605786  0.22758241     0.77400
C1315       C  0.04890483  0.88107892  0.22058073     0.77300
C1316       C  0.94747068  0.86051705  0.34830319     0.77200
O1317       O  0.67309786  0.99248400  0.39793185    -0.71900
O1318       O  0.76452417  0.54615426  0.41311431    -0.72100
O1319       O  0.68071881  0.54174015  0.39514539    -0.72000
O1320       O  0.77540254  0.46073343  0.43155730    -0.72000
O1321       O  0.77986604  0.99132569  0.43883003    -0.72000
O1322       O  0.76182938  0.94682137  0.32007730    -0.72000
O1323       O  0.78673831  0.51883756  0.34315545    -0.71900
O1324       O  0.72690772  0.93342174  0.39615121    -0.72100
V1325       V  0.72864239  0.50002401  0.41176199     1.35200
V1326       V  0.76896864  0.97003157  0.37957175     1.35200
C1327       C  0.68502555  0.94934617  0.39759916     0.77300
C1328       C  0.78718976  0.54870403  0.37779724     0.77400
C1329       C  0.73055895  0.96750771  0.30142223     0.77300
C1330       C  0.80694426  0.43646007  0.40428523     0.77200
O1331       O  0.83694231  0.67832212  0.49417141    -0.71900
O1332       O  0.87992924  0.75367397  0.08759385    -0.72100
O1333       O  0.79993350  0.75491793  0.05832305    -0.72000
O1334       O  0.91226943  0.67628925  0.02286002    -0.72000
O1335       O  0.92771226  0.71410709  0.47577977    -0.72000
O1336       O  0.82317319  0.80376962  0.52180311    -0.72000
O1337       O  0.90204556  0.79110527  0.03823427    -0.71900
O1338       O  0.84582867  0.72923103  0.45304148    -0.72100
V1339       V  0.85629211  0.71658426  0.03942643     1.35200
V1340       V  0.87562311  0.75826163  0.49915577     1.35200
C1341       C  0.83677338  0.69023078  0.45597754     0.77300
C1342       C  0.89672398  0.78743821  0.07873825     0.77400
C1343       C  0.79181481  0.79505186  0.04889827     0.77300
C1344       C  0.93502139  0.68106004  0.98879346     0.77200
C1345       C  0.85772345  0.08370552  0.01487722    -0.26400
C1346       C  0.83189566  0.10550013  0.05508755    -0.14500
C1347       C  0.84708561  0.48195827  0.99135066     0.36100
C1348       C  0.86811658  0.45298265  0.44291348    -0.25900
C1349       C  0.79145313  0.06130186  0.48221465    -0.15100
C1350       C  0.83905960  0.04811304  0.47867830     0.37200
N1351       N  0.86257659  0.01143559  0.44429308    -0.89400
H1352       H  0.89350333  0.07228035  0.01513070     0.18300
H1353       H  0.88013461  0.47499592  0.42205933     0.18300
N1354       N  0.85387480  0.52772790  0.00835624    -0.88400
H1355       H  0.88017274  0.98567912  0.45959766     0.35700
H1356       H  0.88589553  0.02471595  0.42650151     0.40800
H1357       H  0.87229654  0.52639939  0.03624573     0.40400
H1358       H  0.82271699  0.54952592  0.01817004     0.35300
C1359       C  0.74657094  0.89974639  0.18469368    -0.26400
C1360       C  0.71950348  0.93295052  0.16561488    -0.14500
C1361       C  0.68762957  0.59902772  0.28076577     0.36100
C1362       C  0.66772939  0.60742201  0.32469671    -0.25900
C1363       C  0.72149220  0.94834081  0.25644340    -0.15100
C1364       C  0.74870955  0.90787167  0.23088461     0.37200
N1365       N  0.78155123  0.87832281  0.25043506    -0.89400
H1366       H  0.77332087  0.87491151  0.16408597     0.18300
H1367       H  0.68032665  0.63063155  0.35017535     0.18300
N1368       N  0.72065346  0.62455689  0.26936850    -0.88400
H1369       H  0.81315339  0.87836860  0.23530527     0.35700
H1370       H  0.77557993  0.84459453  0.24296902     0.40800
H1371       H  0.74631787  0.61983763  0.29066456     0.40400
H1372       H  0.70578626  0.65969231  0.27555008     0.35300
C1373       C  0.00818452  0.63598018  0.50911324    -0.26400
C1374       C  0.97721948  0.64902668  0.97198180    -0.14500
C1375       C  0.99699657  0.65411693  0.93101170     0.36100
C1376       C  0.57420229  0.64675816  0.89080174    -0.25900
C1377       C  0.60070726  0.65014289  0.92668398    -0.15100
C1378       C  0.58368840  0.62596855  0.45409495     0.37200
N1379       N  0.61018024  0.60991464  0.48795645    -0.89400
H1380       H  0.99629682  0.62344635  0.53801436     0.18300
H1381       H  0.58227781  0.65994773  0.86101528     0.18300
N1382       N  0.97682946  0.64145193  0.89073760    -0.88400
H1383       H  0.64318416  0.61416010  0.48206707     0.35700
H1384       H  0.61157009  0.57426570  0.48444020     0.40800
H1385       H  0.99880044  0.64206157  0.86350175     0.40400
H1386       H  0.94757876  0.66586370  0.89084296     0.35300
C1387       C  0.73474847  0.86745430  0.05168796    -0.26400
C1388       C  0.75223308  0.82911794  0.07114810    -0.14500
C1389       C  0.73162481  0.81958826  0.60957914     0.36100
C1390       C  0.68656238  0.84187222  0.61931720    -0.25900
C1391       C  0.66186025  0.86364530  0.08317986    -0.15100
C1392       C  0.68897045  0.88744841  0.06055642     0.37200
N1393       N  0.66950966  0.92246644  0.03658411    -0.89400
H1394       H  0.75465420  0.87829301  0.02642072     0.18300
H1395       H  0.66640674  0.83130223  0.64459495     0.18300
N1396       N  0.75071379  0.78609042  0.63529514    -0.88400
H1397       H  0.68149687  0.95250742  0.04846511     0.35700
H1398       H  0.63483526  0.93062275  0.04437087     0.40800
H1399       H  0.73152089  0.76024127  0.63295004     0.40400
H1400       H  0.74812494  0.80235718  0.66879781     0.35300
C1401       C  0.59351572  0.48556729  0.15652798    -0.26400
C1402       C  0.54867185  0.49551578  0.14682219    -0.14500
C1403       C  0.97296012  0.48707576  0.16343057     0.36100
C1404       C  0.10555460  0.91813377  0.21003189    -0.25900
C1405       C  0.07835973  0.89195582  0.18623893    -0.15100
C1406       C  0.56796266  0.92413149  0.15070617     0.37200
N1407       N  0.55578980  0.89330669  0.11416994    -0.89400
H1408       H  0.60984693  0.51321111  0.17012435     0.18300
H1409       H  0.12967140  0.90050492  0.22944932     0.18300
N1410       N  0.92532799  0.50127364  0.16659325    -0.88400
H1411       H  0.56325959  0.90532754  0.08490689     0.35700
H1412       H  0.52106468  0.89596911  0.11776777     0.40800
H1413       H  0.91206677  0.48893663  0.19340587     0.40400
H1414       H  0.91376340  0.48560632  0.13725608     0.35300
C1415       C  0.87867074  0.83935539  0.36012210    -0.26400
C1416       C  0.91589183  0.85027000  0.38160827    -0.14500
C1417       C  0.41056282  0.79370607  0.34891793     0.36100
C1418       C  0.41536427  0.74787652  0.32641041    -0.25900
C1419       C  0.40990824  0.73900861  0.28021709    -0.15100
C1420       C  0.88277243  0.79379572  0.33618240     0.37200
N1421       N  0.85213565  0.78330319  0.30371947    -0.89400
H1422       H  0.85414869  0.86683107  0.35132391     0.18300
H1423       H  0.42894191  0.72019486  0.34330740     0.18300
N1424       N  0.42498761  0.80404030  0.39272740    -0.88400
H1425       H  0.85310625  0.80508145  0.28034518     0.35700
H1426       H  0.81992368  0.79122212  0.32012016     0.40800
H1427       H  0.45681691  0.78413066  0.39341907     0.40400
H1428       H  0.40260897  0.79449277  0.41476755     0.35300
C1429       C  0.85846169  0.62397199  0.83460328     0.03000
C1430       C  0.83367047  0.58851011  0.83473557    -0.13200
C1431       C  0.80540927  0.58764813  0.87317542     0.00500
C1432       C  0.80343462  0.62199654  0.91187222    -0.11700
C1433       C  0.82720437  0.65797714  0.91200896     0.03000
C1434       C  0.85350556  0.65910293  0.87281819    -0.11100
H1435       H  0.83755482  0.56097438  0.80577013     0.08600
H1436       H  0.78376741  0.62056998  0.94210246     0.06100
H1437       H  0.87304181  0.68600484  0.87304987     0.06000
C1438       C  0.90245768  0.82704333  0.61733364     0.03000
C1439       C  0.88386279  0.86980696  0.60620986    -0.13200
C1440       C  0.87860789  0.91155840  0.63652128     0.00500
C1441       C  0.89575197  0.91089249  0.67844553    -0.11700
C1442       C  0.91689387  0.86867257  0.69027194     0.03000
C1443       C  0.91862288  0.82632685  0.65982618    -0.11100
H1444       H  0.87035373  0.87017900  0.57401613     0.08600
H1445       H  0.89270126  0.94326417  0.70180391     0.06100
H1446       H  0.93407499  0.79355904  0.66824131     0.06000
C1447       C  0.65267739  0.92113018  0.89217734     0.03000
C1448       C  0.62009052  0.92124365  0.85959100    -0.13200
C1449       C  0.59687190  0.88348904  0.84933292     0.00500
C1450       C  0.60472367  0.84804082  0.87410710    -0.11700
C1451       C  0.63479987  0.84799482  0.90691975     0.03000
C1452       C  0.65981242  0.88340192  0.91495520    -0.11100
H1453       H  0.61468040  0.94926544  0.84125948     0.08600
H1454       H  0.58604836  0.82020865  0.86869090     0.06100
H1455       H  0.68345944  0.88257546  0.94027411     0.06000
C1456       C  0.66404904  0.59978595  0.60527909     0.03000
C1457       C  0.62576213  0.60065077  0.63316090    -0.13200
C1458       C  0.58870119  0.63741711  0.63903888     0.00500
C1459       C  0.58989988  0.67363726  0.61508949    -0.11700
C1460       C  0.62909740  0.67377306  0.58774729     0.03000
C1461       C  0.66629370  0.63713103  0.58405887    -0.11100
H1462       H  0.62514891  0.57256347  0.65129754     0.08600
H1463       H  0.56100619  0.70150504  0.61806069     0.06100
H1464       H  0.69638171  0.63653595  0.56321758     0.06000
O1465       O  0.55883933  0.62248093  0.70716806    -0.71900
O1466       O  0.93538026  0.61326799  0.80981556    -0.72100
O1467       O  0.53962626  0.54058742  0.70471522    -0.72000
O1468       O  0.49476350  0.65774597  0.77540405    -0.72000
O1469       O  0.92054478  0.71437608  0.76767748    -0.72000
O1470       O  0.95399636  0.59479769  0.69394468    -0.72000
O1471       O  0.88905374  0.63714642  0.76327274    -0.71900
O1472       O  0.51059233  0.63747170  0.65914476    -0.72900
V1473       V  0.51590580  0.59925062  0.73928734     1.35200
V1474       V  0.93844675  0.65439198  0.73173304     1.35200
C1475       C  0.55042435  0.63470425  0.67028953     0.77300
C1476       C  0.89552067  0.62244398  0.79971732     0.77400
C1477       C  0.52602593  0.52876968  0.66683967     0.77300
C1478       C  0.46039967  0.68366993  0.76633690     0.77200
O1479       O  0.65197197  0.69950427  0.94507468    -0.71900
O1480       O  0.67719531  0.79598308  0.02956419    -0.72100
O1481       O  0.66624221  0.70929390  0.53616891    -0.72000
O1482       O  0.66809252  0.78672409  0.94348582    -0.72000
O1483       O  0.59662089  0.81403106  0.95738732    -0.72000
O1484       O  0.59544589  0.73688436  0.55445694    -0.72000
O1485       O  0.60997395  0.82322020  0.55289879    -0.71900
O1486       O  0.58207481  0.72628935  0.46860724    -0.72100
V1487       V  0.66301760  0.74921443  0.98765713     1.35200
V1488       V  0.59702457  0.77423252  0.51016318     1.35200
C1489       C  0.61256442  0.69397236  0.44756586     0.77300
C1490       C  0.65046785  0.82583131  0.55565123     0.77400
C1491       C  0.63047495  0.70884869  0.55912461     0.77300
C1492       C  0.63356526  0.81466020  0.93700727     0.77200
O1493       O  0.82543376  0.94813448  0.59263166    -0.71900
O1494       O  0.69560559  0.52013948  0.59774367    -0.72100
O1495       O  0.82043455  0.02495957  0.56020826    -0.72000
O1496       O  0.73778190  0.96606636  0.60777681    -0.72000
O1497       O  0.74168299  0.54513827  0.69353788    -0.72000
O1498       O  0.81426115  0.50065545  0.58377132    -0.72000
O1499       O  0.73996337  0.56862522  0.61448621    -0.71900
O1500       O  0.84134618  0.99228388  0.65155762    -0.72100
V1501       V  0.77879843  0.99712558  0.58529596     1.35200
V1502       V  0.77729346  0.52191822  0.63855075     1.35200
C1503       C  0.84856362  0.95297795  0.62590373     0.77300
C1504       C  0.70226550  0.56117788  0.60317164     0.77400
C1505       C  0.82761868  0.06308845  0.58010789     0.77300
C1506       C  0.73583167  0.96758575  0.64903176     0.77200
O1507       O  0.56477230  0.83636803  0.79194910    -0.71900
O1508       O  0.96757197  0.83426582  0.73888518    -0.72100
O1509       O  0.56586142  0.84427609  0.70542790    -0.72000
O1510       O  0.48674627  0.80674941  0.78377095    -0.72000
O1511       O  0.95023307  0.90494495  0.84302575    -0.72000
O1512       O  0.02612190  0.92283438  0.74952164    -0.72000
O1513       O  0.94435970  0.90883810  0.75523729    -0.71900
O1514       O  0.53479644  0.90960578  0.80571657    -0.72100
V1515       V  0.52568378  0.82683430  0.74527474     1.35200
V1516       V  0.98969786  0.91246704  0.79592983     1.35200
C1517       C  0.56472999  0.87698976  0.81348546     0.77300
C1518       C  0.94269792  0.87032236  0.73078617     0.77400
C1519       C  0.04688149  0.88946195  0.72016089     0.77300
C1520       C  0.95150237  0.86449214  0.85022386     0.77200
O1521       O  0.66817662  0.99985870  0.90195162    -0.71900
O1522       O  0.75558829  0.54824383  0.90896160    -0.72100
O1523       O  0.67308935  0.53911094  0.88787414    -0.72000
O1524       O  0.76819735  0.46457967  0.93142102    -0.72000
O1525       O  0.77947176  0.00355579  0.93517019    -0.72000
O1526       O  0.74977024  0.96256535  0.81941641    -0.72000
O1527       O  0.78024670  0.51892565  0.83997224    -0.71900
O1528       O  0.72538595  0.94351529  0.89610785    -0.72100
V1529       V  0.72127105  0.50061768  0.90828900     1.35200
V1530       V  0.76282914  0.98352607  0.87744117     1.35200
C1531       C  0.68304148  0.95657291  0.89846607     0.77300
C1532       C  0.77934850  0.55007466  0.87404204     0.77400
C1533       C  0.71583484  0.98364268  0.80457835     0.77300
C1534       C  0.80147201  0.44108401  0.90583312     0.77200
O1535       O  0.83255605  0.67897958  0.99192271    -0.71900
O1536       O  0.88244172  0.75241388  0.59134084    -0.72100
O1537       O  0.80347482  0.75417193  0.55952762    -0.72000
O1538       O  0.91539826  0.67450110  0.52718074    -0.72000
O1539       O  0.92272236  0.71647908  0.97143826    -0.72000
O1540       O  0.81782686  0.80444698  0.01949389    -0.72000
O1541       O  0.90708850  0.78899140  0.54249998    -0.71900
O1542       O  0.83986530  0.73003105  0.95051727    -0.72100
V1543       V  0.85974630  0.71552419  0.54236030     1.35200
V1544       V  0.87027079  0.75967323  0.99578958     1.35200
C1545       C  0.83121548  0.69090663  0.95372006     0.77300
C1546       C  0.90016332  0.78576116  0.58296856     0.77400
C1547       C  0.79607627  0.79432645  0.55020444     0.77300
C1548       C  0.93865721  0.67837303  0.49310516     0.77200
C1549       C  0.86292181  0.07039157  0.51146103    -0.26400
C1550       C  0.83796109  0.09511265  0.55116117    -0.14500
C1551       C  0.85666830  0.47130207  0.48858693     0.36100
C1552       C  0.85990818  0.46294181  0.94608018    -0.25900
C1553       C  0.78752783  0.07267382  0.98370826    -0.15100
C1554       C  0.83518671  0.06213042  0.98031980     0.37200
N1555       N  0.86017380  0.02909278  0.94382739    -0.89400
H1556       H  0.89844220  0.05739071  0.51179371     0.18300
H1557       H  0.87164975  0.48481859  0.92490490     0.18300
N1558       N  0.86380241  0.51685232  0.50593707    -0.88400
H1559       H  0.87953341  0.00263599  0.95695637     0.35700
H1560       H  0.88191651  0.04573072  0.92784149     0.40800
H1561       H  0.88249878  0.51501097  0.53359553     0.40400
H1562       H  0.83275317  0.53863850  0.51636780     0.35300
C1563       C  0.72418166  0.91183670  0.69177684    -0.26400
C1564       C  0.70423149  0.94704776  0.67041419    -0.14500
C1565       C  0.67924955  0.59026131  0.76980810     0.36100
C1566       C  0.65721375  0.59901219  0.81290173    -0.25900
C1567       C  0.70272741  0.96521490  0.76132590    -0.15100
C1568       C  0.72380137  0.92076486  0.73806275     0.37200
N1569       N  0.74850211  0.88696671  0.76037416    -0.89400
H1570       H  0.74900031  0.88340320  0.67331000     0.18300
H1571       H  0.66617401  0.62527012  0.83814336     0.18300
N1572       N  0.70862785  0.61953950  0.75825847    -0.88400
H1573       H  0.78183766  0.87930426  0.74687258     0.35700
H1574       H  0.73548532  0.85670542  0.75346300     0.40800
H1575       H  0.73304814  0.61981187  0.78108982     0.40400
H1576       H  0.68992619  0.65324329  0.76196127     0.35300
C1577       C  0.00566582  0.63938208  0.00488012    -0.26400
C1578       C  0.97982339  0.64459208  0.47597797    -0.14500
C1579       C  0.99963932  0.65062606  0.43545186     0.36100
C1580       C  0.57617911  0.65934631  0.38765722    -0.25900
C1581       C  0.59973132  0.65222373  0.42462002    -0.15100
C1582       C  0.59164294  0.62700558  0.96200066     0.37200
N1583       N  0.62376988  0.61705847  0.99338149    -0.89400
H1584       H  0.99319381  0.62876824  0.03467666     0.18300
H1585       H  0.58982820  0.67554317  0.36222071     0.18300
N1586       N  0.97746866  0.64174530  0.39574048    -0.88400
H1587       H  0.65488787  0.62255285  0.98170288     0.35700
H1588       H  0.62812531  0.58165352  0.99401946     0.40800
H1589       H  0.00180722  0.62975572  0.36876195     0.40400
H1590       H  0.95795358  0.67284665  0.39134834     0.35300
C1591       C  0.73789201  0.86591412  0.55211416    -0.26400
C1592       C  0.75619746  0.82817741  0.57198683    -0.14500
C1593       C  0.72690644  0.82032380  0.10808936     0.36100
C1594       C  0.68173075  0.84257795  0.11683520    -0.25900
C1595       C  0.66566064  0.86231160  0.58595301    -0.15100
C1596       C  0.69214833  0.88556937  0.56188894     0.37200
N1597       N  0.67191169  0.92161360  0.53962666    -0.89400
H1598       H  0.75719276  0.87673003  0.52636431     0.18300
H1599       H  0.66088028  0.83157105  0.14120942     0.18300
N1600       N  0.74537413  0.78669302  0.13394884    -0.88400
H1601       H  0.65488859  0.94905887  0.56415704     0.35700
H1602       H  0.64810872  0.90931526  0.51985776     0.40800
H1603       H  0.72631487  0.76074437  0.13089100     0.40400
H1604       H  0.74192294  0.80283195  0.16756355     0.35300
C1605       C  0.59684719  0.47307458  0.64431492    -0.26400
C1606       C  0.55148424  0.48653661  0.63732512    -0.14500
C1607       C  0.97691176  0.48664242  0.66543766     0.36100
C1608       C  0.09409796  0.93098306  0.69272356    -0.25900
C1609       C  0.06566133  0.90094766  0.67933323    -0.15100
C1610       C  0.56276644  0.92604666  0.63859327     0.37200
N1611       N  0.55089917  0.89828726  0.59971736    -0.89400
H1612       H  0.61580826  0.49905479  0.65639674     0.18300
H1613       H  0.12218918  0.91770925  0.71007374     0.18300
N1614       N  0.92931355  0.49988718  0.66619243    -0.88400
H1615       H  0.56257908  0.91015524  0.57177093     0.35700
H1616       H  0.51597921  0.90382750  0.60062662     0.40800
H1617       H  0.91485262  0.48623633  0.69146941     0.40400
H1618       H  0.91965526  0.48467396  0.63562356     0.35300
C1619       C  0.88129473  0.84570093  0.85440650    -0.26400
C1620       C  0.91708330  0.85347313  0.87979707    -0.14500
C1621       C  0.45251745  0.78408748  0.86096492     0.36100
C1622       C  0.46160153  0.73806771  0.83796114    -0.25900
C1623       C  0.44017995  0.72604469  0.79884848    -0.15100
C1624       C  0.88436660  0.80090228  0.82923538     0.37200
N1625       N  0.85779888  0.79373104  0.79224887    -0.89400
H1626       H  0.86053819  0.87465825  0.84355523     0.18300
H1627       H  0.48876119  0.71408486  0.84766929     0.18300
N1628       N  0.47786576  0.79835766  0.89721161    -0.88400
H1629       H  0.86458588  0.81527380  0.77011705     0.35700
H1630       H  0.82409581  0.80417283  0.80441896     0.40800
H1631       H  0.51193533  0.78721058  0.88663037     0.40400
H1632       H  0.47073430  0.78134979  0.92316106     0.35300
loop_ 
_geom_bond_atom_site_label_1 
_geom_bond_atom_site_label_2 
_geom_bond_distance 
_geom_bond_site_symmetry_2 
_ccdc_geom_bond_type 
C1            C2   1.419       .  A
C1            C6   1.398       .  A
C1           C48   1.489       .  S
C2            C3   1.425       .  A
C2            H7   1.083       .  S
C3            C4   1.420       .  A
C3          C104   1.495       .  S
C4            C5   1.403       .  A
C4            H8   1.084       .  S
C5            C6   1.392       .  A
C5          C117   1.483       .  S
C6            H9   1.085       .  S
C10          C11   1.414       .  A
C10          C15   1.406       .  A
C10         C118   1.489       .  S
C11          C12   1.409       .  A
C11          H16   1.084       .  S
C12          C13   1.404       .  A
C12          C75   1.493       .  S
C13          C14   1.406       .  A
C13          H17   1.084       .  S
C14          C15   1.413       .  A
C14          C90   1.482       .  S
C15          H18   1.083       .  S
C19          C20   1.418       .  A
C19          C24   1.411       .  A
C19         C103   1.501       .  S
C20          C21   1.406       .  A
C20          H25   1.080       .  S
C21          C22   1.419       .  A
C21          C89   1.507       .  S
C22          C23   1.417       .  A
C22          H26   1.083       .  S
C23          C24   1.416       .  A
C23          C64   1.504       .  S
C24          H27   1.079       .  S
C28          C29   1.417       .  A
C28          C33   1.396       .  A
C28          C76   1.502       .  S
C29          C30   1.424       .  A
C29          H34   1.082       .  S
C30          C31   1.418       .  A
C30          C47   1.508       .  S
C31          C32   1.416       .  A
C31          H35   1.083       .  S
C32          C33   1.408       .  A
C32          C63   1.499       .  S
C33          H36   1.077       .  S
O37          V45   1.918       .  S
O37          C47   1.268       .  A
O38         V861   1.893       .  S
O38          C48   1.266       .  A
O39          V45   1.847       .  S
O39          C49   1.251       .  A
O40          V45   1.860       .  S
O40          C50   1.257   1_455  A
O41          V46   1.913       .  S
O41         C866   1.266       .  A
O42          V46   1.899       .  S
O42         C865   1.265       .  A
O43          V46   1.931       .  S
O43          C48   1.268       .  A
O44         V862   1.934   1_455  S
O44          C47   1.274       .  A
V45         O854   1.907   1_455  S
V45         V862   2.072   1_455  T
V46         O860   1.926       .  S
V46         V861   2.084       .  T
C49         C178   1.473   1_545  S
C49         O858   1.269       .  A
C50         C195   1.475       .  S
C50         O857   1.269       .  A
O51          V59   1.898       .  S
O51         C265   1.259       .  A
O52          V59   1.867       .  S
O52         C266   1.263       .  A
O53         V263   1.896   1_554  S
O53          C63   1.266       .  A
O54          V59   1.925       .  S
O54          C64   1.270       .  A
O55         V264   1.924       .  S
O55          C64   1.270       .  A
O56          V60   1.928       .  S
O56          C63   1.270       .  A
O57          V60   1.896       .  S
O57          C62   1.258       .  A
O58          V60   1.880   1_556  S
O58          C61   1.265       .  A
V59         O257   1.902       .  S
V59         V264   2.086       .  T
V60         O259   1.924   1_554  S
V60         V263   2.088   1_554  T
C61         C153   1.462       .  S
C61         O255   1.260       .  A
C62         C167   1.455       .  S
C62         O256   1.263       .  A
O65          V73   1.911       .  S
O65          C75   1.267       .  A
O66         V481   1.928   1_545  S
O66          C76   1.274       .  A
O67          V73   1.860       .  S
O67          C77   1.264       .  A
O68          V73   1.881       .  S
O68          C78   1.255       .  A
O69          V74   1.874   1_565  S
O69         C486   1.266       .  A
O70          V74   1.914       .  S
O70         C485   1.264       .  A
O71          V74   1.921       .  S
O71          C76   1.266       .  A
O72         V482   1.908       .  S
O72          C75   1.268       .  A
V73         O474   1.902       .  S
V73         V482   2.086       .  T
V74         O480   1.904   1_545  S
V74         V481   2.073   1_545  T
C77         C122   1.467       .  S
C77         O478   1.259       .  A
C78         C136   1.438       .  S
C78         O477   1.263       .  A
O79          V87   1.910       .  S
O79          C89   1.267       .  A
O80         V903   1.901       .  S
O80          C90   1.264       .  A
O81          V87   1.915       .  S
O81         C907   1.266       .  A
O82          V87   1.874   1_655  S
O82         C908   1.269       .  A
O83          V88   1.895       .  S
O83          C92   1.258       .  A
O84          V88   1.874       .  S
O84          C91   1.264       .  A
O85          V88   1.908       .  S
O85          C90   1.269       .  A
O86         V904   1.938   1_455  S
O86          C89   1.274       .  A
V87         O896   1.892   1_455  S
V87         V904   2.081   1_455  T
V88         O902   1.911       .  S
V88         V903   2.086       .  T
C91         C181   1.461       .  S
C91         O897   1.260       .  A
C92         C192   1.462       .  S
C92         O898   1.267       .  A
O93         V509   1.899       .  S
O93         C103   1.265       .  A
O94         V101   1.909       .  S
O94         C104   1.267       .  A
O95         V101   1.882       .  S
O95         C513   1.262   1_545  A
O96         V101   1.901       .  S
O96         C106   1.265       .  A
O97         V102   1.898       .  S
O97         C514   1.265       .  A
O98         V102   1.892       .  S
O98         C105   1.261       .  A
O99         V510   1.930   1_545  S
O99         C104   1.270       .  A
O100        V102   1.928       .  S
O100        C103   1.272       .  A
V101        O501   1.925   1_545  S
V101        V510   2.086   1_545  T
V102        O507   1.926       .  S
V102        V509   2.087       .  T
C105        C139   1.464       .  S
C105        O503   1.263       .  A
C106        C533   1.477       .  S
C106        O505   1.261       .  A
O107        V319   1.914       .  S
O107        C117   1.265       .  A
O108        V115   1.919   1_554  S
O108        C118   1.269       .  A
O109        V115   1.889   1_554  S
O109        C119   1.263       .  A
O110        V115   1.891       .  S
O110        C120   1.264       .  A
O111        V116   1.898       .  S
O111        C324   1.263       .  A
O112        V116   1.890       .  S
O112        C323   1.263       .  A
O113        V320   1.900       .  S
O113        C118   1.265   1_556  A
O114        V116   1.902       .  S
O114        C117   1.267       .  A
V115        O311   1.923       .  S
V115        V320   2.086       .  T
V116        O317   1.903       .  S
V116        V319   2.085       .  T
C119        C164   1.471       .  S
C119        O316   1.263   1_554  A
C120        C150   1.477       .  S
C120        O315   1.263       .  A
C121        C122   1.403       .  A
C121        C330   1.410       .  A
C121        H128   1.084       .  S
C122        C531   1.405       .  A
C123        C530   1.413       .  A
C123        C328   1.410       .  A
C123        N130   1.426       .  S
C124        C327   1.411       .  A
C124        C533   1.405       .  A
C124        H129   1.081       .  S
C125        C126   1.416       .  A
C125        C532   1.412       .  A
C125        C514   1.478       .  S
C126        C325   1.409       .  A
C126        N127   1.431       .  S
N127        H131   1.046       .  S
N127        H132   1.045       .  S
N130        H133   1.043       .  S
N130        H134   1.046       .  S
C135        C136   1.402       .  A
C135        C140   1.396       .  A
C135        H142   1.084       .  S
C136        C545   1.406       .  A
C137        C138   1.386       .  A
C137        C544   1.394       .  A
C137        N144   1.435       .  S
C138        C547   1.400       .  A
C138        H143   1.079   1_565  S
C139        C140   1.399       .  A
C139        C546   1.399       .  A
C140        N141   1.430       .  S
N141        H145   1.043       .  S
N141        H146   1.046       .  S
N144        H147   1.045       .  S
N144        H148   1.040   1_565  S
C149        C354   1.412       .  A
C149        C970   1.406       .  A
C149        H156   1.083       .  S
C150        C151   1.418       .  A
C150        C353   1.411       .  A
C151        C968   1.408       .  A
C151        N158   1.429       .  S
C152        C153   1.392       .  A
C152        C967   1.401   1_455  A
C152        H157   1.084       .  S
C153        C358   1.411       .  A
C154        C965   1.409       .  A
C154        C357   1.409       .  A
C154        N155   1.429       .  S
N155        H159   1.046       .  S
N155        H160   1.040       .  S
N158        H161   1.043       .  S
N158        H162   1.045       .  S
C163        C164   1.407       .  A
C163        C168   1.399       .  A
C163        H170   1.083       .  S
C164        C369   1.414       .  A
C165        C166   1.405       .  A
C165        C368   1.414       .  A
C165        N172   1.432       .  S
C166        C371   1.401       .  A
C166        H171   1.083       .  S
C167        C168   1.408       .  A
C167        C370   1.398       .  A
C168        N169   1.433       .  S
N169        H173   1.044       .  S
N169        H174   1.046       .  S
N172        H175   1.044       .  S
N172        H176   1.044       .  S
C177        C178   1.408       .  A
C177        C590   1.408       .  A
C177        H184   1.083       .  S
C178        C995   1.430       .  A
C179        C994   1.420       .  A
C179        C588   1.406       .  A
C179        N186   1.440   1_565  S
C180        C181   1.409       .  A
C180        C587   1.409       .  A
C180        H185   1.084       .  S
C181        C998   1.403       .  A
C182        C585   1.400       .  A
C182        C997   1.399       .  A
C182        N183   1.425       .  S
N183        H187   1.047       .  S
N183        H188   1.040       .  S
N186        H189   1.045       .  S
N186        H190   1.043   1_545  S
C191        C192   1.407       .  A
C191        C196   1.408       .  A
C191        H198   1.084       .  S
C192       C1009   1.393       .  A
C193        C194   1.394       .  A
C193       C1008   1.390       .  A
C193        N200   1.431       .  S
C194        C195   1.414       .  A
C194        H199   1.077       .  S
C195       C1012   1.411       .  A
C196       C1011   1.406       .  A
C196        N197   1.430       .  S
N197        H201   1.044       .  S
N197        H202   1.044       .  S
N200        H203   1.045   1_655  S
N200        H204   1.045       .  S
C205        C206   1.417       .  A
C205        C210   1.401       .  A
C205        C252   1.487       .  S
C206        C207   1.420       .  A
C206        H211   1.083       .  S
C207        C208   1.422       .  A
C207        C308   1.494       .  S
C208        C209   1.404       .  A
C208        H212   1.081       .  S
C209        C210   1.397       .  A
C209        C321   1.491       .  S
C210        H213   1.085       .  S
C214        C215   1.416       .  A
C214        C219   1.407       .  A
C214        C322   1.487       .  S
C215        C216   1.410       .  A
C215        H220   1.084       .  S
C216        C217   1.403       .  A
C216        C279   1.494       .  S
C217        C218   1.405       .  A
C217        H221   1.084       .  S
C218        C219   1.410       .  A
C218        C294   1.480       .  S
C219        H222   1.084       .  S
C223        C224   1.421       .  A
C223        C228   1.415       .  A
C223        C307   1.507       .  S
C224        C225   1.408       .  A
C224        H229   1.079       .  S
C225        C226   1.413       .  A
C225        C293   1.503       .  S
C226        C227   1.409       .  A
C226        H230   1.083       .  S
C227        C228   1.419       .  A
C227        C268   1.500       .  S
C228        H231   1.081       .  S
C232        C233   1.419       .  A
C232        C237   1.396       .  A
C232        C280   1.507       .  S
C233        C234   1.430       .  A
C233        H238   1.082       .  S
C234        C235   1.422       .  A
C234        C251   1.517       .  S
C235        C236   1.419       .  A
C235        H239   1.083       .  S
C236        C237   1.407       .  A
C236        C267   1.505       .  S
C237        H240   1.074       .  S
O241        V249   1.925       .  S
O241        C251   1.269       .  A
O242       V1065   1.892       .  S
O242        C252   1.264       .  A
O243        V249   1.853       .  S
O243        C253   1.256       .  A
O244        V249   1.868       .  S
O244        C254   1.259   1_455  A
O245        V250   1.897       .  S
O245       C1070   1.261       .  A
O246        V250   1.878       .  S
O246       C1069   1.259       .  A
O247        V250   1.930       .  S
O247        C252   1.270       .  A
O248       V1066   1.941   1_455  S
O248        C251   1.276       .  A
V249       O1058   1.906   1_455  S
V249       V1066   2.069   1_455  T
V250       O1064   1.932       .  S
V250       V1065   2.086       .  T
C253        C382   1.469   1_545  S
C253       O1062   1.266   1_455  A
C254        C399   1.473       .  S
C254       O1061   1.267       .  A
O255        V263   1.899       .  S
O256        V263   1.864   1_554  S
O257        C267   1.268       .  A
O258        V263   1.919       .  S
O258        C268   1.267       .  A
O259        C268   1.271       .  A
O260        V264   1.930       .  S
O260        C267   1.270       .  A
O261        V264   1.904       .  S
O261        C266   1.260       .  A
O262        V264   1.880       .  S
O262        C265   1.266       .  A
C265        C357   1.463       .  S
C266        C371   1.464       .  S
O269        V277   1.912       .  S
O269        C279   1.267       .  A
O270        V685   1.925   1_545  S
O270        C280   1.272       .  A
O271        V277   1.853       .  S
O271        C281   1.262       .  A
O272        V277   1.873       .  S
O272        C282   1.253       .  A
O273        V278   1.864   1_565  S
O273        C690   1.261       .  A
O274        V278   1.913       .  S
O274        C689   1.262       .  A
O275        V278   1.932       .  S
O275        C280   1.270       .  A
O276        V686   1.909       .  S
O276        C279   1.269       .  A
V277        O678   1.902       .  S
V277        V686   2.089       .  T
V278        O684   1.917   1_545  S
V278        V685   2.082   1_545  T
C281        C326   1.462       .  S
C281        O682   1.260       .  A
C282        C340   1.435       .  S
C282        O681   1.264       .  A
O283        V291   1.902       .  S
O283        C293   1.265       .  A
O284       V1107   1.908       .  S
O284        C294   1.265       .  A
O285        V291   1.909       .  S
O285       C1111   1.264       .  A
O286        V291   1.871   1_655  S
O286       C1112   1.269       .  A
O287        V292   1.898       .  S
O287        C296   1.258       .  A
O288        V292   1.878       .  S
O288        C295   1.265       .  A
O289        V292   1.900       .  S
O289        C294   1.266       .  A
O290       V1108   1.939   1_455  S
O290        C293   1.274       .  A
V291       O1100   1.894   1_455  S
V291       V1108   2.080   1_455  T
V292       O1106   1.905       .  S
V292       V1107   2.086       .  T
C295        C385   1.460       .  S
C295       O1101   1.259       .  A
C296        C396   1.463       .  S
C296       O1102   1.266       .  A
O297        V713   1.901       .  S
O297        C307   1.266       .  A
O298        V305   1.902       .  S
O298        C308   1.263       .  A
O299        V305   1.893   1_565  S
O299        C717   1.267       .  A
O300        V305   1.914       .  S
O300        C310   1.268       .  A
O301        V306   1.901       .  S
O301        C718   1.266       .  A
O302        V306   1.901       .  S
O302        C309   1.263       .  A
O303        V714   1.937       .  S
O303        C308   1.273   1_565  A
O304        V306   1.933       .  S
O304        C307   1.273       .  A
V305        O705   1.910   1_545  S
V305        V714   2.083   1_545  T
V306        O711   1.932       .  S
V306        V713   2.086       .  T
C309        C343   1.470       .  S
C309        O707   1.263       .  A
C310        C737   1.478       .  S
C310        O709   1.260   1_545  A
O311        C321   1.269       .  A
O312        V319   1.910       .  S
O312        C322   1.267       .  A
O313        V319   1.887       .  S
O313        C323   1.263       .  A
O314        V319   1.899       .  S
O314        C324   1.265       .  A
O315        V320   1.895       .  S
O316        V320   1.886       .  S
O317        C322   1.266       .  A
O318        V320   1.900       .  S
O318        C321   1.266       .  A
C323        C368   1.472       .  S
C324        C354   1.483       .  S
C325        C326   1.402       .  A
C325        H332   1.084       .  S
C326        C735   1.409       .  A
C327        C734   1.411       .  A
C327        N334   1.428       .  S
C328        C737   1.403   1_554  A
C328        H333   1.081       .  S
C329        C736   1.414   1_556  A
C329        C330   1.417   1_556  A
C329        C718   1.479       .  S
C330        N331   1.431   1_554  S
N331        H335   1.046   1_556  S
N331        H336   1.045       .  S
N334        H337   1.044       .  S
N334        H338   1.046       .  S
C339        C340   1.401       .  A
C339        C344   1.396       .  A
C339        H346   1.082       .  S
C340        C749   1.402       .  A
C341        C748   1.388       .  A
C341        C342   1.392       .  A
C341        N348   1.433       .  S
C342        C751   1.398       .  A
C342        H347   1.075       .  S
C343        C750   1.403       .  A
C343        C344   1.396       .  A
C344        N345   1.427       .  S
N345        H349   1.042       .  S
N345        H350   1.045       .  S
N348        H351   1.046       .  S
N348        H352   1.043       .  S
C353       C1174   1.405       .  A
C353        H360   1.084       .  S
C354        C355   1.420       .  A
C355       C1172   1.406       .  A
C355        N362   1.429       .  S
C356       C1171   1.402       .  A
C356        C357   1.389       .  A
C356        H361   1.084       .  S
C358       C1169   1.407   1_556  A
C358        N359   1.429   1_556  S
N359        H363   1.045       .  S
N359        H364   1.043       .  S
N362        H365   1.044       .  S
N362        H366   1.044       .  S
C367        C368   1.406       .  A
C367        C372   1.404       .  A
C367        H374   1.083       .  S
C369        C370   1.403       .  A
C369        N376   1.430       .  S
C370        H375   1.084       .  S
C371        C372   1.409       .  A
C372        N373   1.434       .  S
N373        H377   1.046       .  S
N373        H378   1.045       .  S
N376        H379   1.044       .  S
N376        H380   1.044       .  S
C381        C382   1.404       .  A
C381        C794   1.415       .  A
C381        H388   1.083   1_455  S
C382       C1199   1.417       .  A
C383       C1198   1.411       .  A
C383        C792   1.405       .  A
C383        N390   1.437   1_565  S
C384        C791   1.409       .  A
C384        C385   1.410       .  A
C384        H389   1.084       .  S
C385       C1202   1.403       .  A
C386        C789   1.400       .  A
C386       C1201   1.398       .  A
C386        N387   1.427       .  S
N387        H391   1.043       .  S
N387        H392   1.046       .  S
N390        H393   1.038   1_545  S
N390        H394   1.047       .  S
C395        C396   1.406       .  A
C395        C400   1.409       .  A
C395        H402   1.084       .  S
C396       C1213   1.397       .  A
C397       C1212   1.393       .  A
C397        C398   1.399       .  A
C397        N404   1.430       .  S
C398        C399   1.415       .  A
C398        H403   1.080       .  S
C399       C1216   1.415       .  A
C400       C1215   1.409       .  A
C400        N401   1.432       .  S
N401        H405   1.045       .  S
N401        H406   1.045       .  S
N404        H407   1.045   1_655  S
N404        H408   1.045       .  S
C409        C410   1.417       .  A
C409        C414   1.412       .  A
C409        C456   1.501       .  S
C410        C411   1.421       .  A
C410        H415   1.083       .  S
C411        C412   1.418       .  A
C411        C512   1.487       .  S
C412        C413   1.399       .  A
C412        H416   1.083       .  S
C413        C414   1.406       .  A
C413        C525   1.500       .  S
C414        H417   1.081       .  S
C418        C419   1.417       .  A
C418        C423   1.419       .  A
C418        C526   1.499       .  S
C419        C420   1.405       .  A
C419        H424   1.084       .  S
C420        C421   1.398       .  A
C420        C483   1.493       .  S
C421        C422   1.407       .  A
C421        H425   1.083       .  S
C422        C423   1.422       .  A
C422        C498   1.496       .  S
C423        H426   1.083       .  S
C427        C428   1.423       .  A
C427        C432   1.421       .  A
C427        C511   1.520       .  S
C428        C429   1.418       .  A
C428        H433   1.080       .  S
C429        C430   1.403       .  A
C429        C497   1.500       .  S
C430        C431   1.403       .  A
C430        H434   1.084       .  S
C431        C432   1.424       .  A
C431        C472   1.496       .  S
C432        H435   1.078       .  S
C436        C437   1.399       .  A
C436        C441   1.388       .  A
C436        C484   1.472       .  S
C437        C438   1.416       .  A
C437        H442   1.084       .  S
C438        C439   1.427       .  A
C438        C455   1.507       .  S
C439        C440   1.430       .  A
C439        H443   1.083       .  S
C440        C441   1.401       .  A
C440        C471   1.498       .  S
C441        H444   1.084       .  S
O445        V453   1.898   1_455  S
O445        C455   1.265       .  A
O446       V1269   1.895       .  S
O446        C456   1.263       .  A
O447        V453   1.884   1_455  S
O447        C457   1.262   1_455  A
O448        V453   1.886       .  S
O448        C458   1.260       .  A
O449        V454   1.905       .  S
O449       C1274   1.264       .  A
O450        V454   1.905       .  S
O450       C1273   1.264       .  A
O451        V454   1.944       .  S
O451        C456   1.275       .  A
O452       V1270   1.945       .  S
O452        C455   1.275   1_655  A
V453       O1262   1.899       .  S
V453       V1270   2.085       .  T
V454       O1268   1.943       .  S
V454       V1269   2.083       .  T
C457        C586   1.466   1_655  S
C457       O1266   1.264       .  A
C458        C603   1.477       .  S
C458       O1265   1.265       .  A
O459        V467   1.876       .  S
O459        C673   1.253       .  A
O460        V467   1.840       .  S
O460        C674   1.256       .  A
O461        V671   1.904       .  S
O461        C471   1.273       .  A
O462        V467   1.929       .  S
O462        C472   1.269       .  A
O463        V672   1.912       .  S
O463        C472   1.269       .  A
O464        V468   1.919       .  S
O464        C471   1.265       .  A
O465        V468   1.915       .  S
O465        C470   1.266       .  A
O466        V468   1.899       .  S
O466        C469   1.269   1_554  A
V467        O665   1.906       .  S
V467        V672   2.081       .  T
V468        O667   1.905   1_554  S
V468        V671   2.080       .  T
C469        C561   1.451       .  S
C469        O663   1.253       .  A
C470        C575   1.454       .  S
C470        O664   1.255       .  A
O473        V481   1.911       .  S
O473        C483   1.267       .  A
O474        C484   1.265       .  A
O475        V481   1.856   1_545  S
O475        C485   1.262       .  A
O476        V481   1.867       .  S
O476        C486   1.252       .  A
O477        V482   1.875       .  S
O478        V482   1.904       .  S
O479        V482   1.907       .  S
O479        C484   1.265       .  A
O480        C483   1.270       .  A
C485        C530   1.474       .  S
C486        C544   1.431       .  S
O487        V495   1.918       .  S
O487        C497   1.271       .  A
O488       V1311   1.920       .  S
O488        C498   1.266       .  A
O489        V495   1.894       .  S
O489       C1315   1.256       .  A
O490        V495   1.865   1_655  S
O490       C1316   1.266       .  A
O491        V496   1.880       .  S
O491        C500   1.254       .  A
O492        V496   1.826       .  S
O492        C499   1.258       .  A
O493        V496   1.900       .  S
O493        C498   1.270       .  A
O494       V1312   1.924   1_455  S
O494        C497   1.268       .  A
V495       O1304   1.920   1_455  S
V495       V1312   2.083   1_455  T
V496       O1310   1.940       .  S
V496       V1311   2.082       .  T
C499        C589   1.433       .  S
C499       O1305   1.257       .  A
C500        C600   1.454       .  S
C500       O1306   1.268       .  A
O501        C511   1.272       .  A
O502        V509   1.900       .  S
O502        C512   1.264       .  A
O503        V509   1.865       .  S
O504        V509   1.882       .  S
O504        C514   1.262       .  A
O505        V510   1.876   1_545  S
O506        V510   1.865       .  S
O506        C513   1.257       .  A
O507        C512   1.270       .  A
O508        V510   1.938       .  S
O508        C511   1.273       .  A
C513        C547   1.451       .  S
O515        V727   1.934       .  S
O515        C525   1.273       .  A
O516        V523   1.935       .  S
O516        C526   1.272       .  A
O517        V523   1.881       .  S
O517        C527   1.263       .  A
O518        V523   1.896   1_556  S
O518        C528   1.260       .  A
O519        V524   1.889       .  S
O519        C732   1.263       .  A
O520        V524   1.900       .  S
O520        C731   1.264       .  A
O521        V728   1.899   1_554  S
O521        C526   1.265       .  A
O522        V524   1.900       .  S
O522        C525   1.264       .  A
V523        O719   1.932   1_554  S
V523        V728   2.084   1_554  T
V524        O725   1.899       .  S
V524        V727   2.082       .  T
C527        C572   1.481       .  S
C527        O724   1.265   1_554  A
C528        C558   1.468       .  S
C528        O723   1.267       .  A
C529        C530   1.400       .  A
C529        C738   1.409   1_554  A
C529        H536   1.083       .  S
C531        C736   1.408       .  A
C531        N538   1.435       .  S
C532        C735   1.402       .  A
C532        H537   1.083       .  S
C533        C534   1.425       .  A
C534        C733   1.410       .  A
C534        N535   1.432       .  S
N535        H539   1.046       .  S
N535        H540   1.045       .  S
N538        H541   1.045       .  S
N538        H542   1.046       .  S
C543        C544   1.398       .  A
C543        C548   1.390       .  A
C543        H550   1.081       .  S
C545        C546   1.384       .  A
C545        N552   1.434       .  S
C546        H551   1.082       .  S
C547        C548   1.410       .  A
C548        N549   1.432       .  S
N549        H553   1.045       .  S
N549        H554   1.045       .  S
N552        H555   1.047       .  S
N552        H556   1.044       .  S
C557        C762   1.402       .  A
C557       C1378   1.398       .  A
C557        H564   1.084       .  S
C558        C761   1.397       .  A
C558        C559   1.401       .  A
C559       C1376   1.396       .  A
C559        N566   1.427       .  S
C560       C1375   1.400   1_455  A
C560        C561   1.394       .  A
C560        H565   1.083       .  S
C561        C766   1.412   1_556  A
C562       C1373   1.397       .  A
C562        C765   1.415       .  A
C562        N563   1.432       .  S
N563        H567   1.047       .  S
N563        H568   1.044       .  S
N566        H569   1.044       .  S
N566        H570   1.038       .  S
C571        C572   1.408       .  A
C571        C576   1.412       .  A
C571        H578   1.083   1_554  S
C572        C777   1.416       .  A
C573        C776   1.418       .  A
C573        C574   1.404       .  A
C573        N580   1.433       .  S
C574        C779   1.402       .  A
C574        H579   1.084       .  S
C575        C778   1.398       .  A
C575        C576   1.409       .  A
C576        N577   1.434       .  S
N577        H581   1.045       .  S
N577        H582   1.046       .  S
N580        H583   1.043       .  S
N580        H584   1.045       .  S
C585        C586   1.401       .  A
C585        H592   1.084       .  S
C586       C1403   1.401   1_455  A
C587       C1402   1.406       .  A
C587        N594   1.430       .  S
C588        C589   1.394       .  A
C588        H593   1.086       .  S
C589       C1406   1.405       .  A
C590       C1405   1.406       .  A
C590        N591   1.430       .  S
N591        H595   1.045       .  S
N591        H596   1.046       .  S
N594        H597   1.043       .  S
N594        H598   1.045       .  S
C599        C600   1.406       .  A
C599        C604   1.407       .  A
C599        H606   1.083       .  S
C600       C1417   1.389       .  A
C601       C1416   1.404       .  A
C601        C602   1.405       .  A
C601        N608   1.431       .  S
C602        C603   1.413       .  A
C602        H607   1.080       .  S
C603       C1420   1.417       .  A
C604       C1419   1.409       .  A
C604        N605   1.432       .  S
N605        H609   1.045       .  S
N605        H610   1.046       .  S
N608        H611   1.047       .  S
N608        H612   1.045       .  S
C613        C614   1.418       .  A
C613        C618   1.413       .  A
C613        C660   1.498       .  S
C614        C615   1.420       .  A
C614        H619   1.083       .  S
C615        C616   1.417       .  A
C615        C716   1.490       .  S
C616        C617   1.400       .  A
C616        H620   1.081       .  S
C617        C618   1.406       .  A
C617        C729   1.503       .  S
C618        H621   1.080       .  S
C622        C623   1.417       .  A
C622        C627   1.416       .  A
C622        C730   1.501       .  S
C623        C624   1.407       .  A
C623        H628   1.084       .  S
C624        C625   1.402       .  A
C624        C687   1.499       .  S
C625        C626   1.414       .  A
C625        H629   1.083       .  S
C626        C627   1.419       .  A
C626        C702   1.496       .  S
C627        H630   1.083       .  S
C631        C632   1.425       .  A
C631        C636   1.418       .  A
C631        C715   1.512       .  S
C632        C633   1.415       .  A
C632        H637   1.084       .  S
C633        C634   1.400       .  A
C633        C701   1.493       .  S
C634        C635   1.400       .  A
C634        H638   1.085       .  S
C635        C636   1.419       .  A
C635        C676   1.490       .  S
C636        H639   1.078       .  S
C640        C641   1.400       .  A
C640        C645   1.392       .  A
C640        C688   1.475       .  S
C641        C642   1.416       .  A
C641        H646   1.084       .  S
C642        C643   1.425       .  A
C642        C659   1.506       .  S
C643        C644   1.428       .  A
C643        H647   1.083       .  S
C644        C645   1.403       .  A
C644        C675   1.500       .  S
C645        H648   1.083       .  S
O649        V657   1.898   1_455  S
O649        C659   1.264       .  A
O650       V1473   1.904       .  S
O650        C660   1.264       .  A
O651        V657   1.883   1_455  S
O651        C661   1.262   1_455  A
O652        V657   1.883       .  S
O652        C662   1.258       .  A
O653        V658   1.907       .  S
O653       C1478   1.266       .  A
O654        V658   1.916       .  S
O654       C1477   1.266       .  A
O655        V658   1.934       .  S
O655        C660   1.271       .  A
O656       V1474   1.946       .  S
O656        C659   1.275   1_655  A
V657       O1466   1.902       .  S
V657       V1474   2.084       .  T
V658       O1472   1.932       .  S
V658       V1473   2.084       .  T
C661        C790   1.466   1_655  S
C661       O1470   1.264       .  A
C662        C807   1.474       .  S
C662       O1469   1.264       .  A
O663        V671   1.876   1_556  S
O664        V671   1.843       .  S
O665        C675   1.272       .  A
O666        V671   1.927   1_556  S
O666        C676   1.269       .  A
O667        C676   1.267       .  A
O668        V672   1.922       .  S
O668        C675   1.266       .  A
O669        V672   1.914       .  S
O669        C674   1.265       .  A
O670        V672   1.901       .  S
O670        C673   1.269       .  A
C673        C765   1.452       .  S
C674        C779   1.454       .  S
O677        V685   1.904       .  S
O677        C687   1.265       .  A
O678        C688   1.265       .  A
O679        V685   1.855   1_545  S
O679        C689   1.262       .  A
O680        V685   1.864       .  S
O680        C690   1.252       .  A
O681        V686   1.882       .  S
O682        V686   1.906       .  S
O683        V686   1.911       .  S
O683        C688   1.265       .  A
O684        C687   1.272       .  A
C689        C734   1.476       .  S
C690        C748   1.422       .  S
O691        V699   1.909       .  S
O691        C701   1.268       .  A
O692       V1515   1.925       .  S
O692        C702   1.269       .  A
O693        V699   1.900       .  S
O693       C1519   1.258       .  A
O694        V699   1.879   1_655  S
O694       C1520   1.268       .  A
O695        V700   1.899       .  S
O695        C704   1.259       .  A
O696        V700   1.851       .  S
O696        C703   1.264       .  A
O697        V700   1.898       .  S
O697        C702   1.268       .  A
O698       V1516   1.925   1_455  S
O698        C701   1.268       .  A
V699       O1508   1.912   1_455  S
V699       V1516   2.086   1_455  T
V700       O1514   1.940       .  S
V700       V1515   2.078       .  T
C703        C793   1.437       .  S
C703       O1509   1.254       .  A
C704        C804   1.463       .  S
C704       O1510   1.266       .  A
O705        C715   1.268       .  A
O706        V713   1.898       .  S
O706        C716   1.263       .  A
O707        V713   1.863       .  S
O708        V713   1.883       .  S
O708        C718   1.262       .  A
O709        V714   1.872       .  S
O710        V714   1.867       .  S
O710        C717   1.255       .  A
O711        C716   1.272       .  A
O712        V714   1.938       .  S
O712        C715   1.274       .  A
C717        C751   1.461       .  S
O719        C729   1.273       .  A
O720        V727   1.935       .  S
O720        C730   1.272       .  A
O721        V727   1.886       .  S
O721        C731   1.263       .  A
O722        V727   1.891       .  S
O722        C732   1.262       .  A
O723        V728   1.892       .  S
O724        V728   1.911       .  S
O725        C730   1.264       .  A
O726        V728   1.906       .  S
O726        C729   1.266       .  A
C731        C776   1.480       .  S
C732        C762   1.468       .  S
C733        C734   1.402       .  A
C733        H740   1.083       .  S
C735        N742   1.433       .  S
C736        H741   1.083   1_554  S
C737        C738   1.426       .  A
C738        N739   1.432       .  S
N739        H743   1.046   1_545  S
N739        H744   1.045       .  S
N742        H745   1.044       .  S
N742        H746   1.045       .  S
C747        C748   1.395       .  A
C747        C752   1.390       .  A
C747        H754   1.084       .  S
C749        C750   1.388       .  A
C749        N756   1.434       .  S
C750        H755   1.078       .  S
C751        C752   1.409       .  A
C752        N753   1.430       .  S
N753        H757   1.045       .  S
N753        H758   1.046       .  S
N756        H759   1.046       .  S
N756        H760   1.045       .  S
C761       C1582   1.400       .  A
C761        H768   1.084   1_556  S
C762        C763   1.407       .  A
C763       C1580   1.392       .  A
C763        N770   1.425       .  S
C764       C1579   1.402   1_455  A
C764        C765   1.400       .  A
C764        H769   1.083       .  S
C766       C1577   1.396       .  A
C766        N767   1.431       .  S
N767        H771   1.048       .  S
N767        H772   1.043       .  S
N770        H773   1.045       .  S
N770        H774   1.046       .  S
C775        C776   1.408       .  A
C775        C780   1.408       .  A
C775        H782   1.083       .  S
C777        C778   1.400       .  A
C777        N784   1.433       .  S
C778        H783   1.084       .  S
C779        C780   1.409       .  A
C780        N781   1.434       .  S
N781        H785   1.044       .  S
N781        H786   1.046       .  S
N784        H787   1.045       .  S
N784        H788   1.045       .  S
C789        C790   1.405       .  A
C789        H796   1.084       .  S
C790       C1607   1.403   1_455  A
C791       C1606   1.402       .  A
C791        N798   1.430       .  S
C792        C793   1.392       .  A
C792        H797   1.087       .  S
C793       C1610   1.404       .  A
C794       C1609   1.413       .  A
C794        N795   1.436       .  S
N795        H799   1.045   1_455  S
N795        H800   1.044   1_455  S
N798        H801   1.042       .  S
N798        H802   1.046       .  S
C803        C804   1.402       .  A
C803        C808   1.407       .  A
C803        H810   1.081       .  S
C804       C1621   1.399       .  A
C805       C1620   1.401       .  A
C805        C806   1.402       .  A
C805        N812   1.431       .  S
C806        C807   1.413       .  A
C806        H811   1.082       .  S
C807       C1624   1.415       .  A
C808       C1623   1.411       .  A
C808        N809   1.431       .  S
N809        H813   1.046       .  S
N809        H814   1.045       .  S
N812        H815   1.046       .  S
N812        H816   1.045       .  S
C817        C818   1.415       .  A
C817        C822   1.411       .  A
C817        C864   1.499       .  S
C818        C819   1.417       .  A
C818        H823   1.083       .  S
C819        C820   1.421       .  A
C819        C920   1.494       .  S
C820        C821   1.405       .  A
C820        H824   1.078       .  S
C821        C822   1.405       .  A
C821        C933   1.510       .  S
C822        H825   1.076       .  S
C826        C827   1.402       .  A
C826        C831   1.407       .  A
C826        C934   1.489       .  S
C827        C828   1.404       .  A
C827        H832   1.085       .  S
C828        C829   1.402       .  A
C828        C891   1.482       .  S
C829        C830   1.411       .  A
C829        H833   1.082       .  S
C830        C831   1.424       .  A
C830        C906   1.489       .  S
C831        H834   1.083       .  S
C835        C836   1.407       .  A
C835        C840   1.404       .  A
C835        C919   1.471       .  S
C836        C837   1.402       .  A
C836        H841   1.085       .  S
C837        C838   1.403       .  A
C837        C905   1.476       .  S
C838        C839   1.405       .  A
C838        H842   1.082       .  S
C839        C840   1.407       .  A
C839        C880   1.474       .  S
C840        H843   1.084       .  S
C844        C845   1.425       .  A
C844        C849   1.397       .  A
C844        C892   1.513       .  S
C845        C846   1.429       .  A
C845        H850   1.081       .  S
C846        C847   1.408       .  A
C846        C863   1.503       .  S
C847        C848   1.408       .  A
C847        H851   1.084       .  S
C848        C849   1.405       .  A
C848        C879   1.490       .  S
C849        H852   1.068       .  S
O853        V861   1.916       .  S
O853        C863   1.266       .  A
O854        C864   1.266       .  A
O855        V861   1.852       .  S
O855        C865   1.253       .  A
O856        V861   1.874       .  S
O856        C866   1.260       .  A
O857        V862   1.918       .  S
O858        V862   1.918   1_455  S
O859        V862   1.934       .  S
O859        C864   1.270       .  A
O860        C863   1.273       .  A
C865        C994   1.464   1_545  S
C866       C1011   1.473       .  S
O867        V875   1.901       .  S
O867       C1081   1.258       .  A
O868        V875   1.871       .  S
O868       C1082   1.264       .  A
O869       V1079   1.902   1_554  S
O869        C879   1.267       .  A
O870        V875   1.907       .  S
O870        C880   1.265       .  A
O871       V1080   1.902       .  S
O871        C880   1.265       .  A
O872        V876   1.913   1_554  S
O872        C879   1.267       .  A
O873        V876   1.894   1_554  S
O873        C878   1.257       .  A
O874        V876   1.869       .  S
O874        C877   1.266       .  A
V875       O1073   1.902       .  S
V875       V1080   2.085       .  T
V876       O1075   1.915       .  S
V876       V1079   2.081       .  T
C877        C969   1.467       .  S
C877       O1071   1.259       .  A
C878        C983   1.453       .  S
C878       O1072   1.265       .  A
O881        V889   1.889       .  S
O881        C891   1.262       .  A
O882       V1297   1.933   1_545  S
O882        C892   1.276       .  A
O883        V889   1.894       .  S
O883        C893   1.266       .  A
O884        V889   1.885       .  S
O884        C894   1.261       .  A
O885        V890   1.863   1_565  S
O885       C1302   1.267       .  A
O886        V890   1.921       .  S
O886       C1301   1.267       .  A
O887        V890   1.927       .  S
O887        C892   1.268       .  A
O888       V1298   1.920       .  S
O888        C891   1.269       .  A
V889       O1290   1.893       .  S
V889       V1298   2.087       .  T
V890       O1296   1.920   1_545  S
V890       V1297   2.074   1_545  T
C893        C938   1.476       .  S
C893       O1294   1.262       .  A
C894        C952   1.469       .  S
C894       O1293   1.261       .  A
O895        V903   1.900       .  S
O895        C905   1.264       .  A
O896        C906   1.260       .  A
O897        V903   1.899       .  S
O898        V903   1.881       .  S
O899        V904   1.886       .  S
O899        C908   1.254       .  A
O900        V904   1.889   1_455  S
O900        C907   1.265       .  A
O901        V904   1.924       .  S
O901        C906   1.274       .  A
O902        C905   1.267       .  A
C907        C997   1.484       .  S
C908       C1008   1.458       .  S
O909       V1325   1.908       .  S
O909        C919   1.266       .  A
O910        V917   1.907       .  S
O910        C920   1.265       .  A
O911        V917   1.877       .  S
O911       C1329   1.263   1_545  A
O912        V917   1.904       .  S
O912        C922   1.267       .  A
O913        V918   1.906       .  S
O913       C1330   1.261       .  A
O914        V918   1.876       .  S
O914        C921   1.267       .  A
O915       V1326   1.930   1_545  S
O915        C920   1.271       .  A
O916        V918   1.895       .  S
O916        C919   1.263       .  A
V917       O1317   1.927   1_545  S
V917       V1326   2.086   1_545  T
V918       O1323   1.895       .  S
V918       V1325   2.089       .  T
C921        C955   1.456       .  S
C921       O1319   1.255       .  A
C922       C1349   1.485       .  S
C922       O1321   1.260   1_545  A
O923       V1135   1.939       .  S
O923        C933   1.273       .  A
O924        V931   1.934       .  S
O924        C934   1.272       .  A
O925        V931   1.884       .  S
O925        C935   1.260       .  A
O926        V931   1.900       .  S
O926        C936   1.260   1_554  A
O927        V932   1.884       .  S
O927       C1140   1.264       .  A
O928        V932   1.897       .  S
O928       C1139   1.264       .  A
O929       V1136   1.893       .  S
O929        C934   1.262       .  A
O930        V932   1.912       .  S
O930        C933   1.265       .  A
V931       O1127   1.936   1_554  S
V931       V1136   2.085       .  T
V932       O1133   1.897       .  S
V932       V1135   2.084       .  T
C935        C980   1.469       .  S
C935       O1132   1.262       .  A
C936        C966   1.467       .  S
C936       O1131   1.264       .  A
C937        C938   1.409   1_556  A
C937       C1146   1.403       .  A
C937        H944   1.081   1_556  S
C938       C1347   1.418   1_554  A
C939       C1346   1.411       .  A
C939       C1144   1.412       .  A
C939        N946   1.432       .  S
C940       C1143   1.410       .  A
C940       C1349   1.404       .  A
C940        H945   1.075       .  S
C941       C1348   1.407       .  A
C941        C942   1.399       .  A
C941       C1330   1.462       .  S
C942       C1141   1.402       .  A
C942        N943   1.431       .  S
N943        H947   1.045       .  S
N943        H948   1.045       .  S
N946        H949   1.046       .  S
N946        H950   1.045       .  S
C951        C952   1.411       .  A
C951        C956   1.395       .  A
C951        H958   1.075       .  S
C952       C1361   1.415       .  A
C953       C1360   1.389       .  A
C953        C954   1.389       .  A
C953        N960   1.436       .  S
C954       C1363   1.399       .  A
C954        H959   1.076   1_565  S
C955       C1362   1.400       .  A
C955        C956   1.400       .  A
C956        N957   1.434       .  S
N957        H961   1.046       .  S
N957        H962   1.046       .  S
N960        H963   1.046       .  S
N960        H964   1.041   1_565  S
C965       C1170   1.401       .  A
C965        H972   1.083       .  S
C966       C1169   1.397   1_656  A
C966        C967   1.407       .  A
C967        N974   1.425       .  S
C968        C969   1.401       .  A
C968        H973   1.084       .  S
C969       C1174   1.402       .  A
C970       C1173   1.400       .  A
C970        N971   1.431       .  S
N971        H975   1.045       .  S
N971        H976   1.046       .  S
N974        H977   1.039       .  S
N974        H978   1.040       .  S
C979        C980   1.405       .  A
C979        C984   1.400       .  A
C979        H986   1.082       .  S
C980       C1185   1.415       .  A
C981       C1184   1.416       .  A
C981        C982   1.401       .  A
C981        N988   1.431       .  S
C982       C1187   1.397       .  A
C982        H987   1.084       .  S
C983       C1186   1.396       .  A
C983        C984   1.408       .  A
C984        N985   1.434       .  S
N985        H989   1.046       .  S
N985        H990   1.045       .  S
N988        H991   1.045       .  S
N988        H992   1.045       .  S
C993        C994   1.403       .  A
C993       C1406   1.399       .  A
C993       H1000   1.084       .  S
C995       C1404   1.409       .  A
C995       N1002   1.442       .  S
C996       C1403   1.408       .  A
C996        C997   1.410   1_655  A
C996       H1001   1.079       .  S
C998       C1401   1.395       .  A
C998        N999   1.430       .  S
N999       H1003   1.042       .  S
N999       H1004   1.047       .  S
N1002      H1005   1.038   1_565  S
N1002      H1006   1.046       .  S
C1007      C1008   1.407       .  A
C1007      C1012   1.411       .  A
C1007      H1014   1.084       .  S
C1009      C1010   1.402       .  A
C1009      N1016   1.430       .  S
C1010      C1011   1.411       .  A
C1010      H1015   1.080       .  S
C1012      N1013   1.431       .  S
N1013      H1017   1.045       .  S
N1013      H1018   1.046       .  S
N1016      H1019   1.042       .  S
N1016      H1020   1.046       .  S
C1021      C1022   1.412       .  A
C1021      C1026   1.416       .  A
C1021      C1068   1.502       .  S
C1022      C1023   1.416       .  A
C1022      H1027   1.083       .  S
C1023      C1024   1.415       .  A
C1023      C1124   1.485       .  S
C1024      C1025   1.400       .  A
C1024      H1028   1.082       .  S
C1025      C1026   1.412       .  A
C1025      C1137   1.507       .  S
C1026      H1029   1.078       .  S
C1030      C1031   1.402       .  A
C1030      C1035   1.410       .  A
C1030      C1138   1.492       .  S
C1031      C1032   1.402       .  A
C1031      H1036   1.085       .  S
C1032      C1033   1.401       .  A
C1032      C1095   1.478       .  S
C1033      C1034   1.409       .  A
C1033      H1037   1.083       .  S
C1034      C1035   1.427       .  A
C1034      C1110   1.491       .  S
C1035      H1038   1.083       .  S
C1039      C1040   1.406       .  A
C1039      C1044   1.408       .  A
C1039      C1123   1.481       .  S
C1040      C1041   1.403       .  A
C1040      H1045   1.084       .  S
C1041      C1042   1.404       .  A
C1041      C1109   1.476       .  S
C1042      C1043   1.406       .  A
C1042      H1046   1.081       .  S
C1043      C1044   1.413       .  A
C1043      C1084   1.483       .  S
C1044      H1047   1.083       .  S
C1048      C1049   1.426       .  A
C1048      C1053   1.396       .  A
C1048      C1096   1.512       .  S
C1049      C1050   1.426       .  A
C1049      H1054   1.081       .  S
C1050      C1051   1.406       .  A
C1050      C1067   1.506       .  S
C1051      C1052   1.410       .  A
C1051      H1055   1.083       .  S
C1052      C1053   1.403       .  A
C1052      C1083   1.484       .  S
C1053      H1056   1.069       .  S
O1057      V1065   1.913       .  S
O1057      C1067   1.265       .  A
O1058      C1068   1.264       .  A
O1059      V1065   1.867       .  S
O1059      C1069   1.258       .  A
O1060      V1065   1.884       .  S
O1060      C1070   1.264       .  A
O1061      V1066   1.907       .  S
O1062      V1066   1.919       .  S
O1063      V1066   1.940       .  S
O1063      C1068   1.274       .  A
O1064      C1067   1.275       .  A
C1069      C1198   1.453   1_545  S
C1070      C1215   1.471       .  S
O1071      V1079   1.903       .  S
O1072      V1079   1.871   1_554  S
O1073      C1083   1.268       .  A
O1074      V1079   1.906       .  S
O1074      C1084   1.265       .  A
O1075      C1084   1.269       .  A
O1076      V1080   1.903       .  S
O1076      C1083   1.265       .  A
O1077      V1080   1.897       .  S
O1077      C1082   1.259       .  A
O1078      V1080   1.869       .  S
O1078      C1081   1.266       .  A
C1081      C1173   1.463       .  S
C1082      C1187   1.454       .  S
O1085      V1093   1.891       .  S
O1085      C1095   1.263       .  A
O1086      V1501   1.932   1_545  S
O1086      C1096   1.276       .  A
O1087      V1093   1.885       .  S
O1087      C1097   1.264       .  A
O1088      V1093   1.882       .  S
O1088      C1098   1.259       .  A
O1089      V1094   1.865   1_565  S
O1089      C1506   1.268       .  A
O1090      V1094   1.913       .  S
O1090      C1505   1.265       .  A
O1091      V1094   1.923       .  S
O1091      C1096   1.268       .  A
O1092      V1502   1.909       .  S
O1092      C1095   1.266       .  A
V1093      O1494   1.890       .  S
V1093      V1502   2.087       .  T
V1094      O1500   1.915   1_545  S
V1094      V1501   2.071   1_545  T
C1097      C1142   1.476       .  S
C1097      O1498   1.265       .  A
C1098      C1156   1.473       .  S
C1098      O1497   1.265       .  A
O1099      V1107   1.904       .  S
O1099      C1109   1.265       .  A
O1100      C1110   1.260       .  A
O1101      V1107   1.895       .  S
O1102      V1107   1.876       .  S
O1103      V1108   1.888       .  S
O1103      C1112   1.254       .  A
O1104      V1108   1.886   1_455  S
O1104      C1111   1.265       .  A
O1105      V1108   1.926       .  S
O1105      C1110   1.275       .  A
O1106      C1109   1.266       .  A
C1111      C1201   1.476       .  S
C1112      C1212   1.462       .  S
O1113      V1529   1.915       .  S
O1113      C1123   1.267       .  A
O1114      V1121   1.907       .  S
O1114      C1124   1.267       .  A
O1115      V1121   1.874       .  S
O1115      C1533   1.260   1_545  A
O1116      V1121   1.906       .  S
O1116      C1126   1.268       .  A
O1117      V1122   1.900       .  S
O1117      C1534   1.259       .  A
O1118      V1122   1.870       .  S
O1118      C1125   1.266       .  A
O1119      V1530   1.919   1_545  S
O1119      C1124   1.268       .  A
O1120      V1122   1.905       .  S
O1120      C1123   1.265       .  A
V1121      O1521   1.932   1_545  S
V1121      V1530   2.086   1_545  T
V1122      O1527   1.906       .  S
V1122      V1529   2.087       .  T
C1125      C1159   1.458       .  S
C1125      O1523   1.257       .  A
C1126      C1553   1.492       .  S
C1126      O1525   1.262       .  A
O1127      C1137   1.274       .  A
O1128      V1135   1.934       .  S
O1128      C1138   1.272       .  A
O1129      V1135   1.889       .  S
O1129      C1139   1.261       .  A
O1130      V1135   1.905       .  S
O1130      C1140   1.262       .  A
O1131      V1136   1.880   1_556  S
O1132      V1136   1.896       .  S
O1133      C1138   1.264       .  A
O1134      V1136   1.910   1_556  S
O1134      C1137   1.264       .  A
C1139      C1184   1.475       .  S
C1140      C1170   1.473   1_655  S
C1141      C1142   1.408       .  A
C1141      H1148   1.081       .  S
C1142      C1551   1.415       .  A
C1143      C1550   1.411       .  A
C1143      N1150   1.431       .  S
C1144      C1553   1.406   1_554  A
C1144      H1149   1.076       .  S
C1145      C1552   1.404       .  A
C1145      C1146   1.394       .  A
C1145      C1534   1.460       .  S
C1146      N1147   1.429       .  S
N1147      H1151   1.045       .  S
N1147      H1152   1.044       .  S
N1150      H1153   1.047       .  S
N1150      H1154   1.044       .  S
C1155      C1156   1.412       .  A
C1155      C1160   1.398       .  A
C1155      H1162   1.077       .  S
C1156      C1565   1.413       .  A
C1157      C1564   1.393       .  A
C1157      C1158   1.386       .  A
C1157      N1164   1.431   1_565  S
C1158      C1567   1.399       .  A
C1158      H1163   1.084   1_565  S
C1159      C1566   1.401       .  A
C1159      C1160   1.403       .  A
C1160      N1161   1.434       .  S
N1161      H1165   1.044       .  S
N1161      H1166   1.046       .  S
N1164      H1167   1.046   1_545  S
N1164      H1168   1.031       .  S
C1169      H1176   1.083       .  S
C1170      C1171   1.413       .  A
C1171      N1178   1.425   1_455  S
C1172      C1173   1.399       .  A
C1172      H1177   1.084       .  S
C1174      N1175   1.430       .  S
N1175      H1179   1.046       .  S
N1175      H1180   1.046       .  S
N1178      H1181   1.040       .  S
N1178      H1182   1.040       .  S
C1183      C1184   1.407       .  A
C1183      C1188   1.400       .  A
C1183      H1190   1.080       .  S
C1185      C1186   1.399       .  A
C1185      N1192   1.432       .  S
C1186      H1191   1.084       .  S
C1187      C1188   1.405       .  A
C1188      N1189   1.434       .  S
N1189      H1193   1.046       .  S
N1189      H1194   1.046       .  S
N1192      H1195   1.045       .  S
N1192      H1196   1.046       .  S
C1197      C1198   1.404       .  A
C1197      C1610   1.396       .  A
C1197      H1204   1.084       .  S
C1199      C1608   1.402       .  A
C1199      N1206   1.437   1_565  S
C1200      C1607   1.407       .  A
C1200      C1201   1.409   1_655  A
C1200      H1205   1.081       .  S
C1202      C1605   1.398       .  A
C1202      N1203   1.434       .  S
N1203      H1207   1.044       .  S
N1203      H1208   1.046       .  S
N1206      H1209   1.040       .  S
N1206      H1210   1.044   1_545  S
C1211      C1212   1.404       .  A
C1211      C1216   1.410       .  A
C1211      H1218   1.084       .  S
C1213      C1214   1.402       .  A
C1213      N1220   1.430       .  S
C1214      C1215   1.408       .  A
C1214      H1219   1.080       .  S
C1216      N1217   1.431       .  S
N1217      H1221   1.045       .  S
N1217      H1222   1.046       .  S
N1220      H1223   1.045       .  S
N1220      H1224   1.045       .  S
C1225      C1226   1.404       .  A
C1225      C1230   1.409       .  A
C1225      C1272   1.491       .  S
C1226      C1227   1.418       .  A
C1226      H1231   1.083       .  S
C1227      C1228   1.409       .  A
C1227      C1328   1.480       .  S
C1228      C1229   1.398       .  A
C1228      H1232   1.084       .  S
C1229      C1230   1.412       .  A
C1229      C1341   1.487       .  S
C1230      H1233   1.083       .  S
C1234      C1235   1.405       .  A
C1234      C1239   1.409       .  A
C1234      C1342   1.489       .  S
C1235      C1236   1.399       .  A
C1235      H1240   1.084       .  S
C1236      C1237   1.411       .  A
C1236      C1299   1.502       .  S
C1237      C1238   1.424       .  A
C1237      H1241   1.083       .  S
C1238      C1239   1.420       .  A
C1238      C1314   1.497       .  S
C1239      H1242   1.083       .  S
C1243      C1244   1.439       .  A
C1243      C1248   1.410       .  A
C1243      C1327   1.519       .  S
C1244      C1245   1.432       .  A
C1244      H1249   1.078       .  S
C1245      C1246   1.393       .  A
C1245      C1313   1.508       .  S
C1246      C1247   1.391       .  A
C1246      H1250   1.086       .  S
C1247      C1248   1.407       .  A
C1247      C1288   1.465       .  S
C1248      H1251   1.084       .  S
C1252      C1253   1.408       .  A
C1252      C1257   1.391       .  A
C1252      C1300   1.483       .  S
C1253      C1254   1.411       .  A
C1253      H1258   1.081       .  S
C1254      C1255   1.409       .  A
C1254      C1271   1.499       .  S
C1255      C1256   1.423       .  A
C1255      H1259   1.083       .  S
C1256      C1257   1.411       .  A
C1256      C1287   1.482       .  S
C1257      H1260   1.084       .  S
O1261      V1269   1.895       .  S
O1261      C1271   1.262       .  A
O1262      C1272   1.262       .  A
O1263      V1269   1.882       .  S
O1263      C1273   1.264       .  A
O1264      V1269   1.883       .  S
O1264      C1274   1.261       .  A
O1265      V1270   1.898       .  S
O1266      V1270   1.908       .  S
O1267      V1270   1.931       .  S
O1267      C1272   1.271       .  A
O1268      C1271   1.275       .  A
C1273      C1402   1.474       .  S
C1274      C1419   1.475       .  S
O1275      V1283   1.889       .  S
O1275      C1489   1.256       .  A
O1276      V1283   1.855       .  S
O1276      C1490   1.261       .  A
O1277      V1487   1.900   1_554  S
O1277      C1287   1.268       .  A
O1278      V1283   1.906       .  S
O1278      C1288   1.264       .  A
O1279      V1488   1.884       .  S
O1279      C1288   1.262       .  A
O1280      V1284   1.901       .  S
O1280      C1287   1.262       .  A
O1281      V1284   1.903       .  S
O1281      C1286   1.260       .  A
O1282      V1284   1.891   1_556  S
O1282      C1285   1.267       .  A
V1283      O1481   1.899       .  S
V1283      V1488   2.090       .  T
V1284      O1483   1.887   1_554  S
V1284      V1487   2.089   1_554  T
C1285      C1377   1.457       .  S
C1285      O1479   1.257       .  A
C1286      C1391   1.464       .  S
C1286      O1480   1.260       .  A
O1289      V1297   1.899       .  S
O1289      C1299   1.269       .  A
O1290      C1300   1.262       .  A
O1291      V1297   1.843   1_545  S
O1291      C1301   1.257       .  A
O1292      V1297   1.854       .  S
O1292      C1302   1.246       .  A
O1293      V1298   1.886       .  S
O1294      V1298   1.897       .  S
O1295      V1298   1.919       .  S
O1295      C1300   1.270       .  A
O1296      C1299   1.270       .  A
C1301      C1346   1.475       .  S
C1302      C1360   1.421       .  S
O1303      V1311   1.907       .  S
O1303      C1313   1.271       .  A
O1304      C1314   1.270       .  A
O1305      V1311   1.892       .  S
O1306      V1311   1.880       .  S
O1307      V1312   1.902       .  S
O1307      C1316   1.259       .  A
O1308      V1312   1.857   1_455  S
O1308      C1315   1.266       .  A
O1309      V1312   1.904       .  S
O1309      C1314   1.267       .  A
O1310      C1313   1.271       .  A
C1315      C1405   1.460       .  S
C1316      C1416   1.470       .  S
O1317      C1327   1.270       .  A
O1318      V1325   1.906       .  S
O1318      C1328   1.269       .  A
O1319      V1325   1.889       .  S
O1320      V1325   1.868       .  S
O1320      C1330   1.263       .  A
O1321      V1326   1.876       .  S
O1322      V1326   1.865       .  S
O1322      C1329   1.255       .  A
O1323      C1328   1.262       .  A
O1324      V1326   1.931       .  S
O1324      C1327   1.275       .  A
C1329      C1363   1.453       .  S
O1331      V1543   1.925       .  S
O1331      C1341   1.273       .  A
O1332      V1339   1.936       .  S
O1332      C1342   1.272       .  A
O1333      V1339   1.883       .  S
O1333      C1343   1.262       .  A
O1334      V1339   1.888       .  S
O1334      C1344   1.261   1_554  A
O1335      V1340   1.887       .  S
O1335      C1548   1.268       .  A
O1336      V1340   1.909       .  S
O1336      C1547   1.267       .  A
O1337      V1544   1.882   1_554  S
O1337      C1342   1.262       .  A
O1338      V1340   1.886       .  S
O1338      C1341   1.261       .  A
V1339      O1535   1.932   1_554  S
V1339      V1544   2.080   1_554  T
V1340      O1541   1.884       .  S
V1340      V1543   2.080       .  T
C1343      C1388   1.476       .  S
C1343      O1540   1.266       .  A
C1344      C1374   1.464       .  S
C1344      O1539   1.266       .  A
C1345      C1346   1.408       .  A
C1345      C1554   1.415   1_554  A
C1345      H1352   1.083       .  S
C1347      C1552   1.404       .  A
C1347      N1354   1.432   1_556  S
C1348      C1551   1.405       .  A
C1348      H1353   1.084       .  S
C1349      C1350   1.427       .  A
C1350      C1549   1.413       .  A
C1350      N1351   1.432       .  S
N1351      H1355   1.046   1_545  S
N1351      H1356   1.045       .  S
N1354      H1357   1.045       .  S
N1354      H1358   1.045       .  S
C1359      C1360   1.396       .  A
C1359      C1364   1.393       .  A
C1359      H1366   1.084       .  S
C1361      C1362   1.402       .  A
C1361      N1368   1.432       .  S
C1362      H1367   1.084       .  S
C1363      C1364   1.413       .  A
C1364      N1365   1.433       .  S
N1365      H1369   1.047       .  S
N1365      H1370   1.045       .  S
N1368      H1371   1.048       .  S
N1368      H1372   1.044       .  S
C1373      C1578   1.390   1_455  A
C1373      H1380   1.084   1_455  S
C1374      C1577   1.392   1_656  A
C1374      C1375   1.401       .  A
C1375      N1382   1.426       .  S
C1376      C1377   1.394       .  A
C1376      H1381   1.083       .  S
C1377      C1582   1.415       .  A
C1378      C1581   1.412       .  A
C1378      N1379   1.435       .  S
N1379      H1383   1.048       .  S
N1379      H1384   1.043       .  S
N1382      H1385   1.043       .  S
N1382      H1386   1.043       .  S
C1387      C1388   1.409       .  A
C1387      C1392   1.407       .  A
C1387      H1394   1.083       .  S
C1388      C1593   1.420       .  A
C1389      C1592   1.421       .  A
C1389      C1390   1.405       .  A
C1389      N1396   1.433       .  S
C1390      C1595   1.396       .  A
C1390      H1395   1.084       .  S
C1391      C1594   1.400       .  A
C1391      C1392   1.409       .  A
C1392      N1393   1.434       .  S
N1393      H1397   1.045       .  S
N1393      H1398   1.046       .  S
N1396      H1399   1.046       .  S
N1396      H1400   1.045       .  S
C1401      C1402   1.404       .  A
C1401      H1408   1.075       .  S
C1403      N1410   1.430       .  S
C1404      C1405   1.390       .  A
C1404      H1409   1.085       .  S
C1406      N1407   1.429       .  S
N1407      H1411   1.045       .  S
N1407      H1412   1.046       .  S
N1410      H1413   1.043       .  S
N1410      H1414   1.045       .  S
C1415      C1416   1.402       .  A
C1415      C1420   1.409       .  A
C1415      H1422   1.084       .  S
C1417      C1418   1.399       .  A
C1417      N1424   1.428       .  S
C1418      C1419   1.411       .  A
C1418      H1423   1.077       .  S
C1420      N1421   1.431       .  S
N1421      H1425   1.045       .  S
N1421      H1426   1.046       .  S
N1424      H1427   1.044       .  S
N1424      H1428   1.042       .  S
C1429      C1430   1.410       .  A
C1429      C1434   1.408       .  A
C1429      C1476   1.499       .  S
C1430      C1431   1.424       .  A
C1430      H1435   1.083       .  S
C1431      C1432   1.414       .  A
C1431      C1532   1.492       .  S
C1432      C1433   1.401       .  A
C1432      H1436   1.083       .  S
C1433      C1434   1.411       .  A
C1433      C1545   1.493       .  S
C1434      H1437   1.084       .  S
C1438      C1439   1.402       .  A
C1438      C1443   1.411       .  A
C1438      C1546   1.489       .  S
C1439      C1440   1.396       .  A
C1439      H1444   1.084       .  S
C1440      C1441   1.407       .  A
C1440      C1503   1.491       .  S
C1441      C1442   1.419       .  A
C1441      H1445   1.083       .  S
C1442      C1443   1.425       .  A
C1442      C1518   1.497       .  S
C1443      H1446   1.083       .  S
C1447      C1448   1.441       .  A
C1447      C1452   1.410       .  A
C1447      C1531   1.524       .  S
C1448      C1449   1.437       .  A
C1448      H1453   1.075       .  S
C1449      C1450   1.394       .  A
C1449      C1517   1.517       .  S
C1450      C1451   1.392       .  A
C1450      H1454   1.086       .  S
C1451      C1452   1.409       .  A
C1451      C1492   1.467       .  S
C1452      H1455   1.084       .  S
C1456      C1457   1.401       .  A
C1456      C1461   1.390       .  A
C1456      C1504   1.471       .  S
C1457      C1458   1.404       .  A
C1457      H1462   1.082       .  S
C1458      C1459   1.408       .  A
C1458      C1475   1.490       .  S
C1459      C1460   1.422       .  A
C1459      H1463   1.083       .  S
C1460      C1461   1.409       .  A
C1460      C1491   1.477       .  S
C1461      H1464   1.084       .  S
O1465      V1473   1.893       .  S
O1465      C1475   1.263       .  A
O1466      C1476   1.263       .  A
O1467      V1473   1.876       .  S
O1467      C1477   1.262       .  A
O1468      V1473   1.878       .  S
O1468      C1478   1.257       .  A
O1469      V1474   1.900       .  S
O1470      V1474   1.909       .  S
O1471      V1474   1.939       .  S
O1471      C1476   1.273       .  A
O1472      C1475   1.271       .  A
C1477      C1606   1.476       .  S
C1478      C1623   1.477       .  S
O1479      V1487   1.889       .  S
O1480      V1487   1.854   1_554  S
O1481      C1491   1.268       .  A
O1482      V1487   1.908       .  S
O1482      C1492   1.264       .  A
O1483      C1492   1.263       .  A
O1484      V1488   1.895       .  S
O1484      C1491   1.261       .  A
O1485      V1488   1.898       .  S
O1485      C1490   1.258       .  A
O1486      V1488   1.881       .  S
O1486      C1489   1.266       .  A
C1489      C1581   1.451       .  S
C1490      C1595   1.463       .  S
O1493      V1501   1.895       .  S
O1493      C1503   1.268       .  A
O1494      C1504   1.263       .  A
O1495      V1501   1.841   1_545  S
O1495      C1505   1.257       .  A
O1496      V1501   1.856       .  S
O1496      C1506   1.247       .  A
O1497      V1502   1.897       .  S
O1498      V1502   1.907       .  S
O1499      V1502   1.905       .  S
O1499      C1504   1.265       .  A
O1500      C1503   1.268       .  A
C1505      C1550   1.469       .  S
C1506      C1564   1.420       .  S
O1507      V1515   1.921       .  S
O1507      C1517   1.276       .  A
O1508      C1518   1.267       .  A
O1509      V1515   1.881       .  S
O1510      V1515   1.871       .  S
O1511      V1516   1.893       .  S
O1511      C1520   1.257       .  A
O1512      V1516   1.854   1_455  S
O1512      C1519   1.264       .  A
O1513      V1516   1.911       .  S
O1513      C1518   1.269       .  A
O1514      C1517   1.270       .  A
C1519      C1609   1.461       .  S
C1520      C1620   1.466       .  S
O1521      C1531   1.272       .  A
O1522      V1529   1.912       .  S
O1522      C1532   1.270       .  A
O1523      V1529   1.894       .  S
O1524      V1529   1.871       .  S
O1524      C1534   1.264       .  A
O1525      V1530   1.885   1_545  S
O1526      V1530   1.860       .  S
O1526      C1533   1.257       .  A
O1527      C1532   1.265       .  A
O1528      V1530   1.928       .  S
O1528      C1531   1.273       .  A
C1533      C1567   1.444       .  S
O1535      C1545   1.274       .  A
O1536      V1543   1.935       .  S
O1536      C1546   1.272       .  A
O1537      V1543   1.877       .  S
O1537      C1547   1.261       .  A
O1538      V1543   1.886       .  S
O1538      C1548   1.260       .  A
O1539      V1544   1.887       .  S
O1540      V1544   1.905   1_554  S
O1541      C1546   1.262       .  A
O1542      V1544   1.888       .  S
O1542      C1545   1.262       .  A
C1547      C1592   1.475       .  S
C1548      C1578   1.467       .  S
C1549      C1550   1.406       .  A
C1549      H1556   1.083       .  S
C1551      N1558   1.432       .  S
C1552      H1557   1.084       .  S
C1553      C1554   1.424       .  A
C1554      N1555   1.431       .  S
N1555      H1559   1.046       .  S
N1555      H1560   1.045       .  S
N1558      H1561   1.045       .  S
N1558      H1562   1.045       .  S
C1563      C1564   1.392       .  A
C1563      C1568   1.388       .  A
C1563      H1570   1.080       .  S
C1565      C1566   1.403       .  A
C1565      N1572   1.432       .  S
C1566      H1571   1.084       .  S
C1567      C1568   1.411       .  A
C1568      N1569   1.434       .  S
N1569      H1573   1.046       .  S
N1569      H1574   1.046       .  S
N1572      H1575   1.046       .  S
N1572      H1576   1.046       .  S
C1577      H1584   1.084   1_455  S
C1578      C1579   1.399       .  A
C1579      N1586   1.426       .  S
C1580      C1581   1.393       .  A
C1580      H1585   1.084       .  S
C1582      N1583   1.432       .  S
N1583      H1587   1.047       .  S
N1583      H1588   1.044       .  S
N1586      H1589   1.045   1_655  S
N1586      H1590   1.040       .  S
C1591      C1592   1.408       .  A
C1591      C1596   1.406       .  A
C1591      H1598   1.083       .  S
C1593      C1594   1.406       .  A
C1593      N1600   1.433       .  S
C1594      H1599   1.083       .  S
C1595      C1596   1.410       .  A
C1596      N1597   1.431       .  S
N1597      H1601   1.045       .  S
N1597      H1602   1.046       .  S
N1600      H1603   1.045       .  S
N1600      H1604   1.045       .  S
C1605      C1606   1.406       .  A
C1605      H1612   1.077       .  S
C1607      N1614   1.431       .  S
C1608      C1609   1.386       .  A
C1608      H1613   1.079       .  S
C1610      N1611   1.428       .  S
N1611      H1615   1.046       .  S
N1611      H1616   1.046       .  S
N1614      H1617   1.044       .  S
N1614      H1618   1.046       .  S
C1619      C1620   1.402       .  A
C1619      C1624   1.407       .  A
C1619      H1626   1.084       .  S
C1621      C1622   1.402       .  A
C1621      N1628   1.431       .  S
C1622      C1623   1.413       .  A
C1622      H1627   1.080       .  S
C1624      N1625   1.432       .  S
N1625      H1629   1.045       .  S
N1625      H1630   1.046       .  S
N1628      H1631   1.047       .  S
N1628      H1632   1.043       .  S
