geometry optimzed in LAMMPS
_audit_creation_date              2020-11-30 
_audit_creation_method            'lammps2cif' 
_symmetry_space_group_name_H-M    'P1' 
_symmetry_Int_Tables_number       1 
_symmetry_cell_setting            triclinic 
loop_ 
_symmetry_equiv_pos_as_xyz 
  x,y,z 
_cell_length_a                    35.13140623 
_cell_length_b                    68.47835282488063 
_cell_length_c                    140.63412673129375 
_cell_angle_alpha                 89.84688064110803 
_cell_angle_beta                  89.96527672691228 
_cell_angle_gamma                 90.01677475556319 
loop_ 
_atom_site_label 
_atom_site_type_symbol 
_atom_site_fract_x 
_atom_site_fract_y 
_atom_site_fract_z 
_atom_site_charge 
Zn1        Zn  0.19774045  0.52558550  0.31813764     1.49700
Zn2        Zn  0.14395674  0.48788375  0.32093309     1.49400
Zn3        Zn  0.12789915  0.51893054  0.30367070     1.49100
Zn4        Zn  0.19933707  0.49131143  0.30290800     1.49500
O5          O  0.16692120  0.50593602  0.31149762    -1.83100
O6          O  0.20054348  0.51953112  0.33213873    -0.73700
O7          O  0.08591714  0.49107401  0.32074932    -0.73600
O8          O  0.12764356  0.54806754  0.30617173    -0.73100
O9          O  0.16362639  0.49353400  0.33431535    -0.73800
O10         O  0.17463651  0.55253460  0.31654445    -0.73400
O11         O  0.07640432  0.51027129  0.30814347    -0.73900
O12         O  0.18567023  0.49537712  0.28929540    -0.73300
O13         O  0.15908374  0.45951751  0.31814260    -0.74100
O14         O  0.13414195  0.51409491  0.28926017    -0.73500
O15         O  0.19700849  0.46267050  0.30555453    -0.73900
O16         O  0.25329016  0.49977914  0.30396488    -0.73900
O17         O  0.25275196  0.52532808  0.31368059    -0.73600
C18         C  0.18642423  0.50644323  0.33752128     0.78100
C19         C  0.06367798  0.50035932  0.31514597     0.78600
C20         C  0.14690233  0.55910876  0.31164638     0.77600
C21         C  0.15974430  0.50447489  0.28483743     0.78000
C22         C  0.18068305  0.45213459  0.31178849     0.79100
C23         C  0.27037878  0.51349763  0.30825470     0.78200
Zn24       Zn  0.69535192  0.52559617  0.32012526     1.49700
Zn25       Zn  0.63868541  0.48849109  0.31890827     1.49400
Zn26       Zn  0.63038424  0.52350018  0.30428375     1.49100
Zn27       Zn  0.69960697  0.49488263  0.30221177     1.49500
O28         O  0.66663431  0.50808786  0.31147133    -1.83100
O29         O  0.69233963  0.51544937  0.33372493    -0.73700
O30         O  0.58167651  0.49265159  0.31823355    -0.73600
O31         O  0.63209862  0.55127978  0.30798800    -0.73100
O32         O  0.65371901  0.48981004  0.33270462    -0.73800
O33         O  0.67256339  0.55362906  0.32007885    -0.73400
O34         O  0.57707595  0.51568682  0.30717214    -0.73900
O35         O  0.68453297  0.50064203  0.28835971    -0.73300
O36         O  0.65125237  0.46118651  0.31451445    -0.74100
O37         O  0.63735007  0.52179527  0.29026465    -0.73500
O38         O  0.69854283  0.46539769  0.30417770    -0.73900
O39         O  0.75322124  0.50409937  0.30426625    -0.73900
O40         O  0.75194455  0.52505226  0.31641556    -0.73600
C41         C  0.67488632  0.50109848  0.33755370     0.78100
C42         C  0.56175311  0.50398653  0.31306306     0.78600
C43         C  0.64750009  0.56111596  0.31456939     0.77600
C44         C  0.65913846  0.51195342  0.28491251     0.78000
C45         C  0.67683898  0.45428162  0.30906022     0.79100
C46         C  0.77005220  0.51550195  0.31004378     0.78200
Zn47       Zn  0.22799287  0.47862263  0.44389797     1.49700
Zn48       Zn  0.28396130  0.47589106  0.42570886     1.49400
Zn49       Zn  0.23321006  0.51414559  0.42900401     1.49100
Zn50       Zn  0.30150376  0.50602992  0.44289427     1.49500
O51         O  0.26177742  0.49348042  0.43536356    -1.83100
O52         O  0.22842835  0.44987102  0.44062687    -0.73700
O53         O  0.26530972  0.48283483  0.41230243    -0.73600
O54         O  0.17898346  0.51378900  0.43308456    -0.73100
O55         O  0.26773190  0.44784868  0.42826113    -0.73800
O56         O  0.17379202  0.48783735  0.44253461    -0.73400
O57         O  0.23070525  0.50943601  0.41497577    -0.73900
O58         O  0.30134244  0.53560064  0.44161220    -0.73300
O59         O  0.34184607  0.47730112  0.42612855    -0.74100
O60         O  0.25427021  0.54113326  0.43144791    -0.73500
O61         O  0.35232235  0.49730864  0.43829964    -0.73900
O62         O  0.29682444  0.49903694  0.45679121    -0.73900
O63         O  0.24371090  0.48144329  0.45771968    -0.73600
C64         C  0.24535256  0.43987720  0.43426735     0.78100
C65         C  0.24367554  0.49655019  0.40935478     0.78600
C66         C  0.15904117  0.50214382  0.43805384     0.77600
C67         C  0.28120942  0.54732087  0.43667825     0.78000
C68         C  0.36450266  0.48646410  0.43162258     0.79100
C69         C  0.27223926  0.48965175  0.46163829     0.78200
Zn70       Zn  0.80011019  0.50598299  0.42760563     1.49700
Zn71       Zn  0.78754129  0.47334418  0.44344979     1.49400
Zn72       Zn  0.73995945  0.51346319  0.44449411     1.49100
Zn73       Zn  0.72440858  0.48094613  0.42796771     1.49500
O74         O  0.76273329  0.49363407  0.43592854    -1.83100
O75         O  0.85286784  0.49564692  0.43006160    -0.73700
O76         O  0.77898231  0.47751736  0.45735929    -0.73600
O77         O  0.76304436  0.54078054  0.44221208    -0.73100
O78         O  0.84376313  0.47382383  0.44156299    -0.73800
O79         O  0.80299094  0.53453072  0.43033422    -0.73400
O80         O  0.74971820  0.50623837  0.45837257    -0.73900
O81         O  0.67330320  0.49053195  0.43176358    -0.73300
O82         O  0.76964017  0.44640994  0.44010872    -0.74100
O83         O  0.68225628  0.51394291  0.44250529    -0.73500
O84         O  0.72425258  0.45140356  0.42940441    -0.73900
O85         O  0.73118163  0.48761029  0.41403954    -0.73900
O86         O  0.78636745  0.50343078  0.41371046    -0.73600
C87         C  0.86567167  0.48335168  0.43607282     0.78100
C88         C  0.76497585  0.49131652  0.46226941     0.78600
C89         C  0.78807073  0.54636794  0.43619348     0.77600
C90         C  0.66032435  0.50351172  0.43735244     0.78000
C91         C  0.74423222  0.43994032  0.43451686     0.79100
C92         C  0.75745998  0.49639510  0.40947378     0.78200
Zn93       Zn  0.47148279  0.72464761  0.32038796     1.49700
Zn94       Zn  0.54343378  0.73427571  0.30723463     1.49400
Zn95       Zn  0.46689946  0.75576992  0.30329475     1.49100
Zn96       Zn  0.51587659  0.76651161  0.32217878     1.49500
O97         O  0.49914687  0.74541978  0.31342869    -1.83100
O98         O  0.50170063  0.69861855  0.32045074    -0.73700
O99         O  0.53948256  0.73332807  0.29296218    -0.73600
O100        O  0.41387133  0.74531286  0.30456272    -0.73100
O101        O  0.55253703  0.70740399  0.31202064    -0.73800
O102        O  0.41599309  0.72251384  0.31586636    -0.73400
O103        O  0.48595177  0.74937762  0.29004280    -0.73900
O104        O  0.49300946  0.79270716  0.31782261    -0.73300
O105        O  0.59045262  0.74892398  0.31048552    -0.74100
O106        O  0.46266109  0.78484172  0.30446746    -0.73500
O107        O  0.57440349  0.76921779  0.32210571    -0.73900
O108        O  0.49725579  0.76078952  0.33578528    -0.73900
O109        O  0.46595123  0.73274284  0.33401799    -0.73600
C110        C  0.53473574  0.69497088  0.31704383     0.78100
C111        C  0.51526172  0.74020394  0.28714246     0.78600
C112        C  0.39750938  0.73264491  0.30977832     0.77600
C113        C  0.47312736  0.79744979  0.31055856     0.78000
C114        C  0.59950122  0.76152263  0.31670784     0.79100
C115        C  0.47699174  0.74689344  0.33916587     0.78200
Zn116      Zn  0.97506124  0.73352191  0.30599633     1.49700
Zn117      Zn  0.02685634  0.73294814  0.32491048     1.49400
Zn118      Zn  0.03901701  0.76722779  0.30917056     1.49100
Zn119      Zn  0.96388482  0.76538342  0.32194502     1.49500
O120        O  0.00166284  0.74974110  0.31542174    -1.83100
O121        O  0.98932216  0.70492979  0.30757647    -0.73700
O122        O  0.08286800  0.73934909  0.32562529    -0.73600
O123        O  0.03805695  0.76299933  0.29487237    -0.73100
O124        O  0.02559797  0.70485335  0.32053606    -0.73800
O125        O  0.99210308  0.74103643  0.29280879    -0.73400
O126        O  0.09279777  0.76039626  0.31376303    -0.73900
O127        O  0.97528111  0.79364632  0.32090921    -0.73300
O128        O  0.00341405  0.73536247  0.33822180    -0.74100
O129        O  0.02655238  0.79631702  0.31171400    -0.73500
O130        O  0.96215042  0.75937566  0.33571258    -0.73900
O131        O  0.91110615  0.76094221  0.31706168    -0.73900
O132        O  0.91734029  0.73698368  0.30658145    -0.73600
C133        C  0.01050986  0.69599905  0.31351891     0.78100
C134        C  0.10526375  0.74932971  0.32040414     0.78600
C135        C  0.01761251  0.75237967  0.28947039     0.77600
C136        C  0.99994571  0.80400735  0.31665797     0.78000
C137        C  0.97822470  0.74726815  0.34123414     0.79100
C138        C  0.89661384  0.74894422  0.31120713     0.78200
Zn139      Zn  0.38771460  0.76045672  0.42843535     1.49700
Zn140      Zn  0.37331740  0.72866762  0.44528258     1.49400
Zn141      Zn  0.44270215  0.72294352  0.43107478     1.49100
Zn142      Zn  0.44418162  0.75727834  0.44629062     1.49500
O143        O  0.41175489  0.74239627  0.43770391    -1.83100
O144        O  0.33001950  0.75771731  0.42891391    -0.73700
O145        O  0.37566309  0.69937565  0.44344085    -0.73600
O146        O  0.44471136  0.72920163  0.41707326    -0.73100
O147        O  0.32184043  0.73656919  0.44078786    -0.73800
O148        O  0.40684495  0.75491227  0.41498409    -0.73400
O149        O  0.42235429  0.69544205  0.43295086    -0.73900
O150        O  0.49894309  0.74936570  0.44515650    -0.73300
O151        O  0.37656835  0.73530964  0.45936493    -0.74100
O152        O  0.49730877  0.72378096  0.43547243    -0.73500
O153        O  0.42721482  0.75471549  0.45990357    -0.73900
O154        O  0.44229958  0.78568784  0.44323942    -0.73900
O155        O  0.40129280  0.78885487  0.43131209    -0.73600
C156        C  0.30842760  0.74768423  0.43434509     0.78100
C157        C  0.39586742  0.68844042  0.43813282     0.78600
C158        C  0.42993385  0.74217343  0.41172824     0.77600
C159        C  0.51560062  0.73568790  0.44068287     0.78000
C160        C  0.39969434  0.74602801  0.46400063     0.79100
C161        C  0.42426190  0.79624370  0.43733501     0.78200
Zn162      Zn  0.87306515  0.73344158  0.44845158     1.49700
Zn163      Zn  0.94917260  0.75740824  0.44628930     1.49400
Zn164      Zn  0.93480169  0.71870836  0.43396296     1.49100
Zn165      Zn  0.88772650  0.75853715  0.42943924     1.49500
O166        O  0.91122563  0.74210770  0.43942626    -1.83100
O167        O  0.88264052  0.74365768  0.46148588    -0.73700
O168        O  0.00112686  0.74639791  0.44412992    -0.73600
O169        O  0.90828726  0.69350989  0.43811346    -0.73100
O170        O  0.93857862  0.75857128  0.46044546    -0.73800
O171        O  0.86886993  0.70428056  0.44926805    -0.73400
O172        O  0.99122197  0.71780440  0.43705913    -0.73900
O173        O  0.90279845  0.74823695  0.41636405    -0.73300
O174        O  0.95019174  0.78508317  0.44159934    -0.74100
O175        O  0.93249081  0.72032015  0.41972920    -0.73500
O176        O  0.90584212  0.78680295  0.43035943    -0.73900
O177        O  0.82987541  0.75862306  0.43077391    -0.73900
O178        O  0.82208606  0.74256480  0.44439493    -0.73600
C179        C  0.90990383  0.75302503  0.46528388     0.78100
C180        C  0.01355905  0.73057085  0.44055831     0.78600
C181        C  0.88296438  0.69039039  0.44444811     0.77600
C182        C  0.92035764  0.73281894  0.41374941     0.78000
C183        C  0.93145803  0.79478518  0.43546909     0.79100
C184        C  0.80849211  0.75179325  0.43731738     0.78200
Zn185      Zn  0.24224896  0.26858455  0.31160385     1.49700
Zn186      Zn  0.30592210  0.27078728  0.32767062     1.49400
Zn187      Zn  0.25032899  0.23356068  0.32661744     1.49100
Zn188      Zn  0.31265563  0.23950992  0.31036304     1.49500
O189        O  0.27801473  0.25313311  0.31908461    -1.83100
O190        O  0.24415339  0.29706453  0.31503672    -0.73700
O191        O  0.29291521  0.26482569  0.34146065    -0.73600
O192        O  0.19452149  0.23387757  0.32347851    -0.73100
O193        O  0.29078252  0.29920336  0.32563095    -0.73800
O194        O  0.18891114  0.25961507  0.31391650    -0.73400
O195        O  0.25382157  0.23936418  0.34065497    -0.73900
O196        O  0.31039206  0.21013535  0.31217863    -0.73300
O197        O  0.36292546  0.26777193  0.32568415    -0.74100
O198        O  0.27015540  0.20630758  0.32423773    -0.73500
O199        O  0.36635110  0.24679495  0.31361808    -0.73900
O200        O  0.30192027  0.24600537  0.29639029    -0.73900
O201        O  0.25247830  0.26609593  0.29755925    -0.73600
C202        C  0.26481609  0.30713177  0.32061445     0.78100
C203        C  0.27140769  0.25226627  0.34546395     0.78600
C204        C  0.17427338  0.24558701  0.31860887     0.77600
C205        C  0.29328075  0.19925043  0.31817881     0.78000
C206        C  0.38222931  0.25756095  0.31983912     0.79100
C207        C  0.27656801  0.25680009  0.29254846     0.78200
Zn208      Zn  0.81598288  0.23982077  0.30905420     1.49700
Zn209      Zn  0.74466177  0.23743689  0.32246218     1.49400
Zn210      Zn  0.80129061  0.27482538  0.32366347     1.49100
Zn211      Zn  0.74708234  0.26963662  0.30567673     1.49500
O212        O  0.77707321  0.25551412  0.31524747    -1.83100
O213        O  0.81315498  0.21129687  0.31244563    -0.73700
O214        O  0.74684022  0.24453043  0.33629520    -0.73600
O215        O  0.85853988  0.27293881  0.32310083    -0.73100
O216        O  0.76107481  0.20888749  0.32127605    -0.73800
O217        O  0.86748958  0.24871475  0.31286648    -0.73400
O218        O  0.78539473  0.27025829  0.33723926    -0.73900
O219        O  0.75001652  0.29902153  0.30741457    -0.73300
O220        O  0.68980110  0.24014749  0.31839523    -0.74100
O221        O  0.78697393  0.30256793  0.32009770    -0.73500
O222        O  0.69175249  0.26255099  0.30690735    -0.73900
O223        O  0.76486513  0.26300234  0.29236968    -0.73900
O224        O  0.81238584  0.24216200  0.29489926    -0.73600
C225        C  0.78972721  0.20107001  0.31723307     0.78100
C226        C  0.76360950  0.25770398  0.34111850     0.78600
C227        C  0.88044492  0.26169672  0.31843776     0.77600
C228        C  0.76657109  0.30984565  0.31350212     0.78000
C229        C  0.67323980  0.25092525  0.31225900     0.79100
C230        C  0.79109869  0.25180560  0.28929014     0.78200
Zn231      Zn  0.17897003  0.25687999  0.43394665     1.49700
Zn232      Zn  0.10902606  0.25780886  0.44844280     1.49400
Zn233      Zn  0.11271851  0.22591529  0.43170075     1.49100
Zn234      Zn  0.17035644  0.22245167  0.44917985     1.49500
O235        O  0.14260113  0.24077202  0.44089192    -1.83100
O236        O  0.16915086  0.28547812  0.43587710    -0.73700
O237        O  0.05362460  0.25286023  0.44504931    -0.73600
O238        O  0.13221623  0.22946136  0.41821253    -0.73100
O239        O  0.12118793  0.28658198  0.44616756    -0.73800
O240        O  0.17913915  0.25090879  0.41993326    -0.73400
O241        O  0.05728384  0.23297123  0.43258371    -0.73900
O242        O  0.15506805  0.19422402  0.44674720    -0.73300
O243        O  0.11578086  0.25238168  0.46254841    -0.74100
O244        O  0.11404416  0.19729289  0.43483290    -0.73500
O245        O  0.15752463  0.22795235  0.46282700    -0.73900
O246        O  0.22759478  0.22590408  0.44801906    -0.73900
O247        O  0.23174873  0.25177870  0.43851233    -0.73600
C248        C  0.14607896  0.29513282  0.44103006     0.78100
C249        C  0.03783948  0.24290175  0.43848251     0.78600
C250        C  0.15922335  0.23965444  0.41473550     0.77600
C251        C  0.13131504  0.18680079  0.44094286     0.78000
C252        C  0.13599080  0.24002132  0.46709492     0.79100
C253        C  0.24724512  0.23891530  0.44377591     0.78200
Zn254      Zn  0.61202370  0.25994552  0.44409677     1.49700
Zn255      Zn  0.68061726  0.25650284  0.42965920     1.49400
Zn256      Zn  0.66401290  0.22088651  0.44384927     1.49100
Zn257      Zn  0.60708653  0.23053235  0.42675774     1.49500
O258        O  0.64102001  0.24187629  0.43616503    -1.83100
O259        O  0.62706357  0.28819235  0.44166976    -0.73700
O260        O  0.73169798  0.24872473  0.43463067    -0.73600
O261        O  0.65369212  0.22622630  0.45770512    -0.73100
O262        O  0.67481031  0.28549465  0.43140798    -0.73800
O263        O  0.61944042  0.25356214  0.45790700    -0.73400
O264        O  0.72207450  0.22084707  0.44246090    -0.73900
O265        O  0.59907845  0.20212008  0.42950209    -0.73300
O266        O  0.67986913  0.25121866  0.41561829    -0.74100
O267        O  0.63927703  0.19430697  0.44111217    -0.73500
O268        O  0.62757710  0.23349026  0.41347483    -0.73900
O269        O  0.55458875  0.24201369  0.42755966    -0.73900
O270        O  0.55600840  0.25754287  0.44142145    -0.73600
C271        C  0.65244047  0.29591923  0.43639015     0.78100
C272        C  0.74432926  0.23403404  0.43921490     0.78600
C273        C  0.63596891  0.23953114  0.46220065     0.77600
C274        C  0.61260950  0.18976804  0.43535317     0.78000
C275        C  0.65699938  0.24203569  0.41021594     0.79100
C276        C  0.53783203  0.25085056  0.43431175     0.78200
Zn277      Zn  0.38429342  0.01793971  0.32034832     1.49700
Zn278      Zn  0.43985382  0.02039211  0.30243726     1.49400
Zn279      Zn  0.45305585  0.98880286  0.31868922     1.49100
Zn280      Zn  0.38314881  0.98320818  0.30443647     1.49500
O281        O  0.41468496  0.00254212  0.31136853    -1.83100
O282        O  0.38242103  0.04635752  0.31647080    -0.73700
O283        O  0.49737840  0.01876132  0.30350473    -0.73600
O284        O  0.45278829  0.99633997  0.33237473    -0.73100
O285        O  0.42300213  0.04846434  0.30440093    -0.73800
O286        O  0.40463820  0.01703260  0.33388078    -0.73400
O287        O  0.50524808  0.99497127  0.31408303    -0.73900
O288        O  0.39897258  0.95481932  0.30779753    -0.73300
O289        O  0.42575513  0.01326632  0.28905500    -0.74100
O290        O  0.44589095  0.96004219  0.31809100    -0.73500
O291        O  0.38747126  0.98742199  0.29004057    -0.73900
O292        O  0.32746328  0.98752762  0.30802074    -0.73900
O293        O  0.33044663  0.00853629  0.32011112    -0.73600
C294        C  0.39945151  0.05635112  0.31011022     0.78100
C295        C  0.51886085  0.00753522  0.30834719     0.78600
C296        C  0.43263111  0.00768304  0.33741135     0.77600
C297        C  0.42445776  0.94846524  0.31352037     0.78000
C298        C  0.40522620  0.00025605  0.28514144     0.79100
C299        C  0.31152989  0.99763891  0.31452769     0.78200
Zn300      Zn  0.87508362  0.02079236  0.30593027     1.49700
Zn301      Zn  0.89724534  0.98404902  0.31939607     1.49400
Zn302      Zn  0.94159780  0.99269312  0.29985446     1.49100
Zn303      Zn  0.95202445  0.02186753  0.31764477     1.49500
O304        O  0.91659410  0.00477194  0.31080429    -1.83100
O305        O  0.82617142  0.01053657  0.31080585    -0.73700
O306        O  0.91617523  0.95713127  0.31518394    -0.73600
O307        O  0.91570391  0.99901039  0.28740928    -0.73100
O308        O  0.83906709  0.98430934  0.31958952    -0.73800
O309        O  0.87083665  0.02005316  0.29164167    -0.73400
O310        O  0.94334344  0.96350004  0.30123605    -0.73900
O311        O  0.00489263  0.01933849  0.31201381    -0.73300
O312        O  0.91653271  0.98816745  0.33290154    -0.74100
O313        O  0.99632612  0.00091619  0.29916517    -0.73500
O314        O  0.95614837  0.01334615  0.33138585    -0.73900
O315        O  0.93429775  0.05043999  0.31754332    -0.73900
O316        O  0.87892598  0.04880161  0.30998521    -0.73600
C317        C  0.81531095  0.99616646  0.31586533     0.78100
C318        C  0.93375610  0.95151051  0.30772753     0.78600
C319        C  0.88814368  0.01029019  0.28529761     0.77600
C320        C  0.01785092  0.01054411  0.30470737     0.78000
C321        C  0.94050253  0.00012225  0.33643525     0.79100
C322        C  0.90401377  0.05855445  0.31444437     0.78200
Zn323      Zn  0.49218583  0.97875323  0.44206216     1.49700
Zn324      Zn  0.50280585  0.01278112  0.42670291     1.49400
Zn325      Zn  0.42510116  0.99043165  0.42833375     1.49100
Zn326      Zn  0.44886724  0.02027708  0.44503497     1.49500
O327        O  0.46727392  0.00075783  0.43565875    -1.83100
O328        O  0.54789533  0.97789291  0.43881578    -0.73700
O329        O  0.48284486  0.01352923  0.41314082    -0.73600
O330        O  0.42278763  0.96114780  0.42851992    -0.73100
O331        O  0.55424513  0.99999008  0.42731299    -0.73800
O332        O  0.46910956  0.95272050  0.43843221    -0.73400
O333        O  0.42663500  0.99906425  0.41474142    -0.73900
O334        O  0.39025815  0.02254597  0.44447554    -0.73300
O335        O  0.51311896  0.04014010  0.43068511    -0.74100
O336        O  0.37661793  0.99984666  0.43373315    -0.73500
O337        O  0.47578417  0.04686079  0.44304494    -0.73900
O338        O  0.46216010  0.01090394  0.45844081    -0.73900
O339        O  0.48900272  0.98180811  0.45625351    -0.73600
C340        C  0.56831833  0.98711409  0.43283616     0.78100
C341        C  0.45126225  0.00780414  0.40966621     0.78600
C342        C  0.44175830  0.94817832  0.43291738     0.77600
C343        C  0.36606516  0.01241791  0.43981818     0.78000
C344        C  0.50165462  0.05177806  0.43709314     0.79100
C345        C  0.47743020  0.99534984  0.46171704     0.78200
Zn346      Zn  0.00290272  0.01092448  0.44447711     1.49700
Zn347      Zn  0.99346579  0.97963721  0.42739547     1.49400
Zn348      Zn  0.92880734  0.98436986  0.44342325     1.49100
Zn349      Zn  0.94134921  0.01832356  0.42823806     1.49500
O350        O  0.96685410  0.99821450  0.43583646    -1.83100
O351        O  0.05561539  0.00091292  0.44215323    -0.73700
O352        O  0.97534546  0.95176410  0.42989817    -0.73600
O353        O  0.93594015  0.98924345  0.45747828    -0.73100
O354        O  0.05073947  0.98108682  0.42968522    -0.73800
O355        O  0.98896743  0.00686486  0.45834832    -0.73400
O356        O  0.93137555  0.95550161  0.44113180    -0.73900
O357        O  0.88472312  0.01848567  0.43053643    -0.73300
O358        O  0.98189427  0.98548699  0.41340538    -0.74100
O359        O  0.87578794  0.99247082  0.43974565    -0.73500
O360        O  0.94593342  0.01213763  0.41432332    -0.73900
O361        O  0.96360802  0.04522087  0.43056786    -0.73900
O362        O  0.00623132  0.03989486  0.44194717    -0.73600
C363        C  0.07074171  0.98996951  0.43589679     0.78100
C364        C  0.95026971  0.94469454  0.43550743     0.78600
C365        C  0.96115210  0.99810579  0.46233271     0.77600
C366        C  0.86276780  0.00645754  0.43473400     0.78000
C367        C  0.96185773  0.99879058  0.40946915     0.79100
C368        C  0.98946915  0.05135586  0.43616426     0.78200
Zn369      Zn  0.24255738  0.48755754  0.57063045     1.49700
Zn370      Zn  0.29891740  0.48026358  0.55276674     1.49400
Zn371      Zn  0.24516692  0.51892874  0.55351638     1.49100
Zn372      Zn  0.31462982  0.51476703  0.56742533     1.49500
O373        O  0.27505218  0.50017062  0.56101923    -1.83100
O374        O  0.24289293  0.45845798  0.56880466    -0.73700
O375        O  0.28240848  0.48469577  0.53906660    -0.73600
O376        O  0.19011411  0.51793345  0.55737872    -0.73100
O377        O  0.28201073  0.45285202  0.55666838    -0.73800
O378        O  0.18742616  0.49575193  0.56895879    -0.73400
O379        O  0.24689759  0.51159863  0.53968950    -0.73900
O380        O  0.31225897  0.54314898  0.56472488    -0.73300
O381        O  0.35711824  0.48203088  0.55309063    -0.74100
O382        O  0.26389275  0.54697163  0.55477678    -0.73500
O383        O  0.36579466  0.50673692  0.56305266    -0.73900
O384        O  0.31188615  0.51173989  0.58146985    -0.73900
O385        O  0.26078444  0.49336757  0.58415101    -0.73600
C386        C  0.25907977  0.44674621  0.56305725     0.78100
C387        C  0.26209610  0.49774478  0.53501865     0.78600
C388        C  0.17125290  0.50782429  0.56334599     0.77600
C389        C  0.29139891  0.55395927  0.55959087     0.78000
C390        C  0.37893285  0.49395701  0.55741013     0.79100
C391        C  0.28928929  0.50314313  0.58714848     0.78200
Zn392      Zn  0.74329163  0.52248522  0.55610696     1.49700
Zn393      Zn  0.73830555  0.48616921  0.57055216     1.49400
Zn394      Zn  0.79629075  0.48383801  0.55305616     1.49100
Zn395      Zn  0.81117283  0.51349983  0.57033529     1.49500
O396        O  0.77226098  0.50148603  0.56240849    -1.83100
O397        O  0.68658290  0.51946186  0.55871902    -0.73700
O398        O  0.73535738  0.45824087  0.56633326    -0.73600
O399        O  0.78508990  0.49367292  0.53970247    -0.73100
O400        O  0.68484048  0.49557743  0.56945991    -0.73800
O401        O  0.74986480  0.52032108  0.54193301    -0.73400
O402        O  0.77498170  0.45606396  0.55407176    -0.73900
O403        O  0.86299724  0.50501764  0.56625236    -0.73300
O404        O  0.75383000  0.48698031  0.58433634    -0.74100
O405        O  0.85407798  0.48308283  0.55483899    -0.73500
O406        O  0.80515985  0.50591163  0.58404343    -0.73900
O407        O  0.80959657  0.54283612  0.56973493    -0.73900
O408        O  0.76144747  0.54974776  0.56007055    -0.73600
C409        C  0.66812911  0.50804049  0.56422837     0.78100
C410        C  0.75052945  0.44842188  0.55966548     0.78600
C411        C  0.76643752  0.50823290  0.53645527     0.77600
C412        C  0.87606913  0.49283210  0.56026613     0.78000
C413        C  0.78116638  0.49549849  0.58856085     0.79100
C414        C  0.78863944  0.55519895  0.56547085     0.78200
Zn415      Zn  0.37716483  0.51053260  0.67567607     1.49700
Zn416      Zn  0.32739240  0.47219891  0.68014531     1.49400
Zn417      Zn  0.39818930  0.48151422  0.69281237     1.49100
Zn418      Zn  0.32490497  0.50865729  0.69460382     1.49500
O419        O  0.35677777  0.49349170  0.68577730    -1.83100
O420        O  0.35713404  0.50221246  0.66266668    -0.73700
O421        O  0.34924392  0.44552005  0.68265007    -0.73600
O422        O  0.44773075  0.49181158  0.68836588    -0.73100
O423        O  0.32452129  0.47523188  0.66602984    -0.73800
O424        O  0.43532191  0.50967648  0.67552046    -0.73400
O425        O  0.40149778  0.45254690  0.69076260    -0.73900
O426        O  0.34140708  0.50433204  0.70844245    -0.73300
O427        O  0.27369924  0.47284895  0.68464229    -0.74100
O428        O  0.39316008  0.48593647  0.70683909    -0.73500
O429        O  0.27017867  0.49988422  0.69336195    -0.73900
O430        O  0.32641739  0.53772374  0.69129200    -0.73900
O431        O  0.36090381  0.53860135  0.67800530    -0.73600
C432        C  0.33672929  0.48773784  0.66007984     0.78100
C433        C  0.37985042  0.44024218  0.68671285     0.78600
C434        C  0.45889707  0.50185368  0.68127902     0.77600
C435        C  0.36926294  0.49487194  0.71204252     0.78000
C436        C  0.25459593  0.48522088  0.68936623     0.79100
C437        C  0.34127998  0.54718131  0.68438351     0.78200
Zn438      Zn  0.82079671  0.50938246  0.67832437     1.49700
Zn439      Zn  0.88516577  0.51801311  0.69323981     1.49400
Zn440      Zn  0.83478548  0.47892828  0.69545008     1.49100
Zn441      Zn  0.89594833  0.48303643  0.67861966     1.49500
O442        O  0.85902288  0.49716023  0.68643957    -1.83100
O443        O  0.81940847  0.53876701  0.67960661    -0.73700
O444        O  0.87581515  0.51570943  0.70714938    -0.73600
O445        O  0.77765290  0.47763710  0.69306859    -0.73100
O446        O  0.86786308  0.54463148  0.68929159    -0.73800
O447        O  0.76898265  0.49942762  0.68151344    -0.73400
O448        O  0.84235158  0.48837671  0.70903196    -0.73900
O449        O  0.89741633  0.45446241  0.68201615    -0.73300
O450        O  0.94144069  0.51687609  0.69141496    -0.74100
O451        O  0.85781730  0.45160595  0.69427817    -0.73500
O452        O  0.94894105  0.49262064  0.68112877    -0.73900
O453        O  0.88460110  0.48604189  0.66460742    -0.73900
O454        O  0.83120234  0.50347454  0.66463368    -0.73600
C455        C  0.84077095  0.55061318  0.68407759     0.78100
C456        C  0.85906462  0.50335166  0.71244066     0.78600
C457        C  0.75589171  0.48701155  0.68741489     0.77600
C458        C  0.88208249  0.44424258  0.68855997     0.78000
C459        C  0.96261986  0.50584461  0.68647008     0.79100
C460        C  0.85744006  0.49442759  0.66021569     0.78200
Zn461      Zn  0.05041473  0.27437888  0.68655227     1.49700
Zn462      Zn  0.98069866  0.26137695  0.69916345     1.49400
Zn463      Zn  0.00021728  0.23660003  0.68067367     1.49100
Zn464      Zn  0.05546987  0.23522326  0.69917173     1.49500
O465        O  0.02194830  0.25172895  0.69131461    -1.83100
O466        O  0.02396910  0.30021239  0.68945826    -0.73700
O467        O  0.93127454  0.25016841  0.69501713    -0.73600
O468        O  0.02162051  0.24653594  0.66802282    -0.73100
O469        O  0.97501601  0.29058345  0.69829534    -0.73800
O470        O  0.05468437  0.27278721  0.67235777    -0.73400
O471        O  0.94150561  0.23738957  0.68072327    -0.73900
O472        O  0.05478318  0.20725981  0.69449170    -0.73300
O473        O  0.98705669  0.25372136  0.71273578    -0.74100
O474        O  0.01534199  0.20805858  0.68210549    -0.73500
O475        O  0.03900432  0.23521580  0.71313435    -0.73900
O476        O  0.10968306  0.24489083  0.69838830    -0.73900
O477        O  0.10491730  0.27395328  0.69134790    -0.73600
C478        C  0.99365821  0.30399817  0.69410150     0.78100
C479        C  0.91907851  0.24213579  0.68748967     0.78600
C480        C  0.04286244  0.26111893  0.66599120     0.77600
C481        C  0.03714265  0.19871280  0.68776097     0.78000
C482        C  0.01078023  0.24328391  0.71727644     0.79100
C483        C  0.12473042  0.26065173  0.69533430     0.78200
Zn484      Zn  0.49060117  0.26418088  0.69467308     1.49700
Zn485      Zn  0.54929460  0.26766801  0.67718910     1.49400
Zn486      Zn  0.56094283  0.23465302  0.69298506     1.49100
Zn487      Zn  0.49006407  0.23187086  0.67849338     1.49500
O488        O  0.52276375  0.24958481  0.68582176    -1.83100
O489        O  0.49232538  0.29277790  0.69153974    -0.73700
O490        O  0.60670927  0.26507968  0.67818476    -0.73600
O491        O  0.55717373  0.24018588  0.70710016    -0.73100
O492        O  0.53335220  0.29572438  0.67956252    -0.73800
O493        O  0.50735844  0.26007169  0.70828024    -0.73400
O494        O  0.61436310  0.24061214  0.68841268    -0.73900
O495        O  0.50474486  0.20400422  0.68106152    -0.73300
O496        O  0.53676675  0.26115593  0.66357736    -0.74100
O497        O  0.55318598  0.20575027  0.69119748    -0.73500
O498        O  0.49573148  0.23648557  0.66433248    -0.73900
O499        O  0.43446002  0.23451559  0.68210469    -0.73900
O500        O  0.43533318  0.25622456  0.69379690    -0.73600
C501        C  0.50984856  0.30318972  0.68542264     0.78100
C502        C  0.62807830  0.25309056  0.68260610     0.78600
C503        C  0.53405993  0.25017978  0.71209457     0.77600
C504        C  0.53000736  0.19585338  0.68618892     0.78000
C505        C  0.51570987  0.24850761  0.65953431     0.79100
C506        C  0.41730780  0.24453277  0.68840156     0.78200
Zn507      Zn  0.04793302  0.24868632  0.57313412     1.49700
Zn508      Zn  0.06735657  0.28211617  0.55835387     1.49400
Zn509      Zn  0.12503313  0.27229621  0.57538473     1.49100
Zn510      Zn  0.11331363  0.24093199  0.55826099     1.49500
O511        O  0.08889490  0.26106342  0.56622186    -1.83100
O512        O  0.99775870  0.25935651  0.56939097    -0.73700
O513        O  0.09164781  0.30814470  0.56136040    -0.73600
O514        O  0.10889468  0.26732604  0.58923582    -0.73100
O515        O  0.01015520  0.28441486  0.55984976    -0.73800
O516        O  0.05374474  0.25206685  0.58705750    -0.73400
O517        O  0.13167128  0.30135056  0.57316200    -0.73900
O518        O  0.16990693  0.24040541  0.56093492    -0.73300
O519        O  0.07650157  0.27638316  0.54450987    -0.74100
O520        O  0.17697920  0.26120039  0.57297126    -0.73500
O521        O  0.10629621  0.24769430  0.54433386    -0.73900
O522        O  0.09123414  0.21356077  0.56048462    -0.73900
O523        O  0.04517659  0.22013157  0.57078548    -0.73600
C524        C  0.98664307  0.27347297  0.56421997     0.78100
C525        C  0.11704092  0.31339197  0.56728415     0.78600
C526        C  0.07891907  0.25916603  0.59251553     0.77600
C527        C  0.19081237  0.24936757  0.56690582     0.78000
C528        C  0.09155651  0.26224893  0.54001317     0.79100
C529        C  0.06351390  0.20808091  0.56571524     0.78200
Zn530      Zn  0.55376388  0.24472290  0.56887703     1.49700
Zn531      Zn  0.61551016  0.24163056  0.55259292     1.49400
Zn532      Zn  0.55895821  0.27905401  0.55326480     1.49100
Zn533      Zn  0.62440279  0.27415551  0.56872795     1.49500
O534        O  0.58812098  0.25992623  0.56081660    -1.83100
O535        O  0.55813806  0.21551711  0.56672191    -0.73700
O536        O  0.60281413  0.24707290  0.53892353    -0.73600
O537        O  0.50295126  0.27822370  0.55680395    -0.73100
O538        O  0.60220118  0.21340054  0.55545169    -0.73800
O539        O  0.49978413  0.25255449  0.56650250    -0.73400
O540        O  0.56342633  0.27252470  0.53929438    -0.73900
O541        O  0.62544960  0.30271025  0.56543414    -0.73300
O542        O  0.67227597  0.24449030  0.55410638    -0.74100
O543        O  0.57921061  0.30683213  0.55487192    -0.73500
O544        O  0.67766717  0.26531945  0.56613255    -0.73900
O545        O  0.61203083  0.27122975  0.58273359    -0.73900
O546        O  0.56344355  0.25040796  0.58268001    -0.73600
C547        C  0.57878437  0.20536025  0.56116024     0.78100
C548        C  0.58208297  0.25967167  0.53471124     0.78600
C549        C  0.48383344  0.26633868  0.56190635     0.77600
C550        C  0.60653273  0.31361126  0.55982788     0.78000
C551        C  0.69251707  0.25427838  0.55988132     0.79100
C552        C  0.58677913  0.26132015  0.58711448     0.78200
Zn553      Zn  0.03265309  0.01603669  0.55568713     1.49700
Zn554      Zn  0.01004280  0.98416394  0.57126581     1.49400
Zn555      Zn  0.96740551  0.02622285  0.57089842     1.49100
Zn556      Zn  0.95349523  0.99523767  0.55408442     1.49500
O557        O  0.99076020  0.00543728  0.56308829    -1.83100
O558        O  0.08171918  0.00357242  0.55940476    -0.73700
O559        O  0.00600237  0.99207628  0.58508694    -0.73600
O560        O  0.99149958  0.05274292  0.56786683    -0.73100
O561        O  0.06661453  0.97918479  0.56914522    -0.73800
O562        O  0.03818909  0.04457922  0.55795664    -0.73400
O563        O  0.97605091  0.02071563  0.58500465    -0.73900
O564        O  0.90277654  0.00764060  0.55619970    -0.73300
O565        O  0.97940936  0.95917798  0.56923234    -0.74100
O566        O  0.91016341  0.02765708  0.56848136    -0.73500
O567        O  0.94381104  0.96693656  0.55668294    -0.73900
O568        O  0.96857081  0.99904324  0.54023646    -0.73900
O569        O  0.02546054  0.01282209  0.54157224    -0.73600
C570        C  0.09131688  0.98918368  0.56461963     0.78100
C571        C  0.99232346  0.00677990  0.58945973     0.78600
C572        C  0.02008395  0.05730380  0.56270158     0.77600
C573        C  0.88908728  0.01941245  0.56229225     0.78000
C574        C  0.95430345  0.95481801  0.56302538     0.79100
C575        C  0.99848157  0.00625299  0.53647911     0.78200
Zn576      Zn  0.52912309  0.01846934  0.56909069     1.49700
Zn577      Zn  0.45788982  0.02253309  0.55578156     1.49400
Zn578      Zn  0.51354842  0.98556853  0.55320703     1.49100
Zn579      Zn  0.45887352  0.98857306  0.57161340     1.49500
O580        O  0.48982894  0.00361727  0.56242484    -1.83100
O581        O  0.52212826  0.04793181  0.56817413    -0.73700
O582        O  0.46228150  0.01918525  0.54163363    -0.73600
O583        O  0.57139380  0.98766875  0.55376901    -0.73100
O584        O  0.47156976  0.05051652  0.55881763    -0.73800
O585        O  0.58051223  0.01246939  0.56369024    -0.73400
O586        O  0.49862723  0.99292259  0.53966460    -0.73900
O587        O  0.45704445  0.96006368  0.56787874    -0.73300
O588        O  0.40323197  0.01855770  0.55928127    -0.74100
O589        O  0.49623926  0.95738055  0.55552764    -0.73500
O590        O  0.40341553  0.99690129  0.57111734    -0.73900
O591        O  0.48126560  0.99043788  0.58507429    -0.73900
O592        O  0.53066178  0.01033945  0.58281381    -0.73600
C593        C  0.49791189  0.05833157  0.56370735     0.78100
C594        C  0.47868985  0.00685315  0.53626577     0.78600
C595        C  0.59337916  0.99972741  0.55795406     0.77600
C596        C  0.47282491  0.94982850  0.56143103     0.78000
C597        C  0.38576741  0.00825974  0.56542839     0.79100
C598        C  0.51069246  0.99937556  0.58817513     0.78200
Zn599      Zn  0.12182527  0.97748847  0.69481285     1.49700
Zn600      Zn  0.12678084  0.01043878  0.67837809     1.49400
Zn601      Zn  0.05808787  0.97963640  0.67896366     1.49100
Zn602      Zn  0.06491774  0.01285286  0.69519731     1.49500
O603        O  0.09289659  0.99525639  0.68676940    -1.83100
O604        O  0.17639160  0.97980149  0.69170710    -0.73700
O605        O  0.11102830  0.00740278  0.66452010    -0.73600
O606        O  0.07025761  0.95052323  0.67987908    -0.73100
O607        O  0.18171571  0.00148840  0.67996854    -0.73800
O608        O  0.10997726  0.94933981  0.69214724    -0.73400
O609        O  0.06086083  0.98764442  0.66512371    -0.73900
O610        O  0.00900687  0.00800305  0.69393324    -0.73300
O611        O  0.12287254  0.03951574  0.68131747    -0.74100
O612        O  0.00415881  0.98442351  0.68310682    -0.73500
O613        O  0.07564379  0.04100851  0.69183620    -0.73900
O614        O  0.07855897  0.00907279  0.70911912    -0.73900
O615        O  0.11747134  0.98355722  0.70879915    -0.73600
C616        C  0.19637792  0.98922189  0.68575336     0.78100
C617        C  0.08369546  0.99848016  0.66044578     0.78600
C618        C  0.09114800  0.94085590  0.68561800     0.77600
C619        C  0.98914606  0.99637286  0.68894114     0.78000
C620        C  0.10006364  0.04935923  0.68648643     0.79100
C621        C  0.09982500  0.99676563  0.71336388     0.78200
Zn622      Zn  0.56087897  0.01364357  0.67931589     1.49700
Zn623      Zn  0.61811161  0.97959358  0.67542005     1.49400
Zn624      Zn  0.62888636  0.00739701  0.69363275     1.49100
Zn625      Zn  0.56046886  0.97643680  0.69272137     1.49500
O626        O  0.59240566  0.99423107  0.68536677    -1.83100
O627        O  0.55713385  0.00949634  0.66520354    -0.73700
O628        O  0.67325261  0.98707216  0.67504280    -0.73600
O629        O  0.62325896  0.03687658  0.69294003    -0.73100
O630        O  0.59339500  0.98355831  0.66242793    -0.73800
O631        O  0.57726700  0.04080607  0.68229355    -0.73400
O632        O  0.68201506  0.00103868  0.68919641    -0.73900
O633        O  0.56842552  0.98134063  0.70675571    -0.73300
O634        O  0.61765922  0.95096923  0.67865979    -0.74100
O635        O  0.62018469  0.00004692  0.70749955    -0.73500
O636        O  0.57490825  0.94818489  0.69025030    -0.73900
O637        O  0.50467739  0.98112670  0.68978933    -0.73900
O638        O  0.50779192  0.01124917  0.68384656    -0.73600
C639        C  0.56986003  0.99650866  0.65959161     0.78100
C640        C  0.69496919  0.99411026  0.68141754     0.78600
C641        C  0.60135960  0.04785590  0.68809443     0.77600
C642        C  0.59358448  0.99040759  0.71154975     0.78000
C643        C  0.59922166  0.94062571  0.68463055     0.79100
C644        C  0.48876919  0.99681668  0.68692430     0.78200
Zn645      Zn  0.30348839  0.77566391  0.55213712     1.49700
Zn646      Zn  0.28206449  0.74454701  0.56831595     1.49400
Zn647      Zn  0.35545177  0.73766351  0.55629239     1.49100
Zn648      Zn  0.35381604  0.77245611  0.57167175     1.49500
O649        O  0.32396124  0.75792372  0.56207438    -1.83100
O650        O  0.24495878  0.77512672  0.55193225    -0.73700
O651        O  0.28448394  0.71539498  0.56736900    -0.73600
O652        O  0.35473205  0.74008612  0.54211845    -0.73100
O653        O  0.23284610  0.75212168  0.56264675    -0.73800
O654        O  0.32121636  0.76686708  0.53891536    -0.73400
O655        O  0.33699893  0.71037312  0.55900714    -0.73900
O656        O  0.40921170  0.76323703  0.57169902    -0.73300
O657        O  0.27896495  0.75160706  0.58194975    -0.74100
O658        O  0.40943777  0.73995335  0.56067479    -0.73500
O659        O  0.32953221  0.77006124  0.58507111    -0.73900
O660        O  0.35626603  0.80112196  0.56786298    -0.73900
O661        O  0.32185794  0.80357964  0.55459425    -0.73600
C662        C  0.22149625  0.76432546  0.55646248     0.78100
C663        C  0.30774061  0.70393345  0.56332276     0.78600
C664        C  0.34052465  0.75208716  0.53619881     0.77600
C665        C  0.42676157  0.75058928  0.56667846     0.78000
C666        C  0.29898166  0.76142974  0.58772437     0.79100
C667        C  0.34286052  0.81123269  0.56099620     0.78200
Zn668      Zn  0.78445283  0.74949377  0.55467263     1.49700
Zn669      Zn  0.86231793  0.77269543  0.55439573     1.49400
Zn670      Zn  0.79960439  0.78431371  0.56919264     1.49100
Zn671      Zn  0.84478314  0.74298368  0.57148506     1.49500
O672        O  0.82281453  0.76219832  0.56252943    -1.83100
O673        O  0.79416374  0.75409502  0.54061414    -0.73700
O674        O  0.87134088  0.80114863  0.55663976    -0.73600
O675        O  0.74284711  0.78574811  0.56674772    -0.73100
O676        O  0.85053573  0.76881722  0.54067380    -0.73800
O677        O  0.73205223  0.75889621  0.55828893    -0.73400
O678        O  0.82619600  0.81024710  0.56672925    -0.73900
O679        O  0.82834689  0.74995013  0.58500634    -0.73300
O680        O  0.91203283  0.76039971  0.55723878    -0.74100
O681        O  0.80311931  0.77958250  0.58313207    -0.73500
O682        O  0.90306089  0.74297330  0.57040923    -0.73900
O683        O  0.82648257  0.71523424  0.56847047    -0.73900
O684        O  0.78530275  0.72043684  0.55673775    -0.73600
C685        C  0.82250470  0.76145381  0.53622572     0.78100
C686        C  0.85550385  0.81410824  0.56172144     0.78600
C687        C  0.72001351  0.77359173  0.56295320     0.77600
C688        C  0.81291986  0.76534230  0.58838983     0.78000
C689        C  0.92496997  0.75006713  0.56402278     0.79100
C690        C  0.80281902  0.70888460  0.56232090     0.78200
Zn691      Zn  0.20773992  0.73072094  0.69437243     1.49700
Zn692      Zn  0.20148663  0.76137399  0.67686685     1.49400
Zn693      Zn  0.26372976  0.76757286  0.69334063     1.49100
Zn694      Zn  0.27216383  0.73195687  0.67875586     1.49500
O695        O  0.23608301  0.74800176  0.68583442    -1.83100
O696        O  0.15208960  0.73187660  0.69128640    -0.73700
O697        O  0.19797894  0.79022102  0.67987881    -0.73600
O698        O  0.25829892  0.76205613  0.70747362    -0.73100
O699        O  0.14743190  0.75145398  0.67864372    -0.73800
O700        O  0.21519527  0.73831661  0.70813182    -0.73400
O701        O  0.24176882  0.79456513  0.69108153    -0.73900
O702        O  0.32540106  0.74095451  0.68119948    -0.73300
O703        O  0.22018365  0.75835116  0.66308671    -0.74100
O704        O  0.32003690  0.76762483  0.69007161    -0.73500
O705        O  0.26553675  0.73588492  0.66472178    -0.73900
O706        O  0.26939463  0.70313743  0.68211601    -0.73900
O707        O  0.22451622  0.70253498  0.69322236    -0.73600
C708        C  0.13234900  0.74044114  0.68494346     0.78100
C709        C  0.21544856  0.80118052  0.68573984     0.78600
C710        C  0.23709769  0.75050950  0.71223134     0.77600
C711        C  0.34021116  0.75555913  0.68537694     0.78000
C712        C  0.24599323  0.74738810  0.65955178     0.79100
C713        C  0.24920588  0.69382416  0.68814349     0.78200
Zn714      Zn  0.70503154  0.76219678  0.67660860     1.49700
Zn715      Zn  0.70160639  0.72830873  0.69231217     1.49400
Zn716      Zn  0.77487375  0.73313383  0.67993045     1.49100
Zn717      Zn  0.75670958  0.76539655  0.69570832     1.49500
O718        O  0.73445992  0.74753550  0.68617679    -1.83100
O719        O  0.64962720  0.75399312  0.67667317    -0.73700
O720        O  0.71759964  0.70055593  0.68988921    -0.73600
O721        O  0.77486164  0.73820129  0.66603606    -0.73100
O722        O  0.64797001  0.73088561  0.68779973    -0.73800
O723        O  0.72676223  0.75850806  0.66324489    -0.73400
O724        O  0.77061491  0.70413209  0.68152976    -0.73900
O725        O  0.81503743  0.76477876  0.69525466    -0.73300
O726        O  0.70142693  0.73220444  0.70635809    -0.74100
O727        O  0.82545517  0.74135835  0.68467291    -0.73500
O728        O  0.73881573  0.75784191  0.70907356    -0.73900
O729        O  0.73931884  0.79323292  0.69310920    -0.73900
O730        O  0.70455136  0.79078524  0.67992713    -0.73600
C731        C  0.63142663  0.74154450  0.68166135     0.78100
C732        C  0.74592459  0.69331044  0.68553388     0.78600
C733        C  0.75479808  0.74826403  0.66034844     0.77600
C734        C  0.83774989  0.75406553  0.69048012     0.78000
C735        C  0.71681114  0.74426372  0.71203199     0.79100
C736        C  0.71854282  0.80089683  0.68667119     0.78200
Zn737      Zn  0.50214253  0.51555540  0.94404412     1.49700
Zn738      Zn  0.48059948  0.48495058  0.92725031     1.49400
Zn739      Zn  0.42638330  0.49112617  0.94535503     1.49100
Zn740      Zn  0.43304763  0.52516604  0.93023112     1.49500
O741        O  0.46086200  0.50411870  0.93660138    -1.83100
O742        O  0.55131581  0.50412132  0.93981757    -0.73700
O743        O  0.46151161  0.45738865  0.93043398    -0.73600
O744        O  0.44271353  0.49379717  0.95888231    -0.73100
O745        O  0.53894323  0.48448418  0.92761193    -0.73800
O746        O  0.49655636  0.51071006  0.95820020    -0.73400
O747        O  0.42346680  0.46277404  0.94278062    -0.73900
O748        O  0.37881213  0.52752921  0.93500361    -0.73300
O749        O  0.46109879  0.49164899  0.91384011    -0.74100
O750        O  0.37355849  0.50125069  0.94418553    -0.73500
O751        O  0.42765345  0.51878951  0.91634099    -0.73900
O752        O  0.46021458  0.55113361  0.93162144    -0.73900
O753        O  0.50717073  0.54447317  0.94170512    -0.73600
C754        C  0.56245947  0.49274904  0.93323641     0.78100
C755        C  0.43849009  0.45127329  0.93681107     0.78600
C756        C  0.47110780  0.50166492  0.96293252     0.77600
C757        C  0.35886266  0.51591777  0.94003127     0.78000
C758        C  0.43942861  0.50534438  0.91084218     0.79100
C759        C  0.48911276  0.55644665  0.93643929     0.78200
Zn760      Zn  0.92790868  0.48648048  0.94247601     1.49700
Zn761      Zn  0.99669434  0.51675394  0.94365235     1.49400
Zn762      Zn  0.99243128  0.48590454  0.92639965     1.49100
Zn763      Zn  0.93415076  0.52197095  0.92756865     1.49500
O764        O  0.96283172  0.50272332  0.93500616    -1.83100
O765        O  0.93822372  0.48894233  0.95661369    -0.73700
O766        O  0.05049897  0.50855939  0.94137100    -0.73600
O767        O  0.97660342  0.45756280  0.92764652    -0.73100
O768        O  0.98441648  0.51106689  0.95746400    -0.73800
O769        O  0.93201287  0.45811597  0.93884505    -0.73400
O770        O  0.04883544  0.48794550  0.92917765    -0.73900
O771        O  0.93879159  0.51626954  0.91355899    -0.73300
O772        O  0.99604357  0.54585860  0.94123324    -0.74100
O773        O  0.98265172  0.49295323  0.91265977    -0.73500
O774        O  0.95344545  0.54956101  0.92970625    -0.73900
O775        O  0.87819355  0.52049537  0.93064014    -0.73900
O776        O  0.87353484  0.49430824  0.93997649    -0.73600
C777        C  0.96106370  0.49938463  0.96146656     0.78100
C778        C  0.06723103  0.49751579  0.93542589     0.78600
C779        C  0.95206233  0.44886710  0.93280240     0.77600
C780        C  0.95934227  0.50465269  0.90870534     0.78000
C781        C  0.97830177  0.55663990  0.93531707     0.79100
C782        C  0.85831096  0.50819006  0.93528264     0.78200
Zn783      Zn  0.33409292  0.48147019  0.82284176     1.49700
Zn784      Zn  0.30974402  0.50964159  0.80563922     1.49400
Zn785      Zn  0.37513580  0.52340416  0.81958750     1.49100
Zn786      Zn  0.38881997  0.48896559  0.80443451     1.49500
O787        O  0.35218832  0.50068851  0.81323579    -1.83100
O788        O  0.27551307  0.47938248  0.82266874    -0.73700
O789        O  0.29996474  0.53793613  0.80757105    -0.73600
O790        O  0.38035468  0.51785978  0.83360957    -0.73100
O791        O  0.26204217  0.49699201  0.80981949    -0.73800
O792        O  0.35215696  0.48922662  0.83619673    -0.73400
O793        O  0.34395005  0.54828248  0.81771405    -0.73900
O794        O  0.43997882  0.50161904  0.80617779    -0.73300
O795        O  0.31663019  0.50538987  0.79165596    -0.74100
O796        O  0.42937708  0.52762233  0.81524899    -0.73500
O797        O  0.37342676  0.49149332  0.79042219    -0.73900
O798        O  0.39564085  0.46056095  0.80768169    -0.73900
O799        O  0.35785660  0.45479572  0.82011870    -0.73600
C800        C  0.25145772  0.48641250  0.81677086     0.78100
C801        C  0.31457467  0.55134297  0.81259299     0.78600
C802        C  0.37092860  0.50397902  0.83917042     0.77600
C803        C  0.45180486  0.51680164  0.81048883     0.78000
C804        C  0.34331532  0.49837924  0.78661423     0.79100
C805        C  0.38233560  0.44908532  0.81400228     0.78200
Zn806      Zn  0.82020128  0.48348434  0.80585714     1.49700
Zn807      Zn  0.81644847  0.51890411  0.82037507     1.49400
Zn808      Zn  0.88707713  0.48894611  0.82049628     1.49100
Zn809      Zn  0.87793930  0.51988156  0.80338730     1.49500
O810        O  0.85055194  0.50297420  0.81251067    -1.83100
O811        O  0.76482133  0.48577636  0.80895157    -0.73700
O812        O  0.83229832  0.51762711  0.83425106    -0.73600
O813        O  0.88433838  0.45958079  0.81889305    -0.73100
O814        O  0.76130350  0.51077091  0.81895136    -0.73800
O815        O  0.83728556  0.45603012  0.80852459    -0.73400
O816        O  0.88025485  0.49636156  0.83420036    -0.73900
O817        O  0.93538015  0.51760282  0.80520989    -0.73300
O818        O  0.81755161  0.54691324  0.81603829    -0.74100
O819        O  0.94036428  0.49596570  0.81695023    -0.73500
O820        O  0.86160633  0.54833448  0.80470026    -0.73900
O821        O  0.86523704  0.51181694  0.78985168    -0.73900
O822        O  0.82452459  0.48726535  0.79186589    -0.73600
C823        C  0.74548139  0.49751102  0.81399696     0.78100
C824        C  0.85823779  0.50808739  0.83858011     0.78600
C825        C  0.86342275  0.44881588  0.81369068     0.77600
C826        C  0.95552827  0.50722290  0.81082471     0.78000
C827        C  0.83628400  0.55649416  0.80982988     0.79100
C828        C  0.84317006  0.49873380  0.78649949     0.78200
Zn829      Zn  0.10742539  0.76592006  0.94695623     1.49700
Zn830      Zn  0.17600752  0.76011527  0.93266943     1.49400
Zn831      Zn  0.15891083  0.72671861  0.94771776     1.49100
Zn832      Zn  0.10270603  0.73364557  0.92986715     1.49500
O833        O  0.13573638  0.74649267  0.93934197    -1.83100
O834        O  0.12864019  0.79364687  0.94548132    -0.73700
O835        O  0.22691565  0.75181785  0.93722951    -0.73600
O836        O  0.14289636  0.73136428  0.96127527    -0.73100
O837        O  0.17495060  0.78869400  0.93502941    -0.73800
O838        O  0.10889632  0.75875880  0.96098996    -0.73400
O839        O  0.21695640  0.72764468  0.94747176    -0.73900
O840        O  0.10032754  0.70435875  0.93234063    -0.73300
O841        O  0.17334791  0.75614855  0.91864443    -0.74100
O842        O  0.14019872  0.69968180  0.94442234    -0.73500
O843        O  0.12082780  0.73884762  0.91607056    -0.73900
O844        O  0.04862313  0.74316908  0.93163094    -0.73900
O845        O  0.05215504  0.76572186  0.94301159    -0.73600
C846        C  0.15591749  0.80000287  0.94034072     0.78100
C847        C  0.23937073  0.73917618  0.94307299     0.78600
C848        C  0.12366903  0.74447301  0.96550628     0.77600
C849        C  0.11629239  0.69316002  0.93841079     0.78000
C850        C  0.15018640  0.74793954  0.91298851     0.79100
C851        C  0.03297200  0.75564536  0.93710603     0.78200
Zn852      Zn  0.67094766  0.75875545  0.92877140     1.49700
Zn853      Zn  0.59964703  0.73089570  0.92989458     1.49400
Zn854      Zn  0.65964946  0.73072291  0.94682111     1.49100
Zn855      Zn  0.60409052  0.76807696  0.94359976     1.49500
O856        O  0.63364325  0.74721483  0.93736938    -1.83100
O857        O  0.66245454  0.75075290  0.91516719    -0.73700
O858        O  0.60420895  0.70274933  0.93347122    -0.73600
O859        O  0.71696651  0.73198830  0.94518571    -0.73100
O860        O  0.60935391  0.73321909  0.91590702    -0.73800
O861        O  0.72399456  0.75124764  0.93254932    -0.73400
O862        O  0.64372407  0.70225542  0.94576774    -0.73900
O863        O  0.60931458  0.76579856  0.95782533    -0.73300
O864        O  0.54554223  0.73773629  0.93237125    -0.74100
O865        O  0.64592092  0.73964307  0.96005047    -0.73500
O866        O  0.54729873  0.76440860  0.94133881    -0.73900
O867        O  0.62210017  0.79525895  0.93937700    -0.73900
O868        O  0.66805517  0.78794310  0.92908941    -0.73600
C869        C  0.63600709  0.74111147  0.91115039     0.78100
C870        C  0.62156307  0.69351340  0.94001747     0.78600
C871        C  0.73804274  0.74073604  0.93915342     0.77600
C872        C  0.62566502  0.75356826  0.96329263     0.78000
C873        C  0.52880862  0.75106447  0.93702760     0.79100
C874        C  0.64816067  0.80043490  0.93354608     0.78200
Zn875      Zn  0.20203250  0.76318926  0.82151966     1.49700
Zn876      Zn  0.22286102  0.73515092  0.80387630     1.49400
Zn877      Zn  0.15844570  0.72183931  0.81861897     1.49100
Zn878      Zn  0.14501521  0.75670522  0.80391309     1.49500
O879        O  0.18214525  0.74424704  0.81212740    -1.83100
O880        O  0.26018591  0.76358644  0.82098876    -0.73700
O881        O  0.23105694  0.70658383  0.80563944    -0.73600
O882        O  0.15956089  0.72617639  0.83278796    -0.73100
O883        O  0.27211807  0.74687701  0.80777437    -0.73800
O884        O  0.18580784  0.75539023  0.83504300    -0.73400
O885        O  0.18702046  0.69649439  0.81589879    -0.73900
O886        O  0.09325840  0.74641727  0.80664283    -0.73300
O887        O  0.21351821  0.73987430  0.78985752    -0.74100
O888        O  0.10205632  0.71972355  0.81539278    -0.73500
O889        O  0.15569448  0.75282589  0.78992443    -0.73900
O890        O  0.14347686  0.78536314  0.80633046    -0.73900
O891        O  0.18232005  0.79075026  0.81854427    -0.73600
C892        C  0.28349739  0.75664775  0.81491049     0.78100
C893        C  0.21589992  0.69319918  0.81062799     0.78600
C894        C  0.16986117  0.73995683  0.83827569     0.77600
C895        C  0.08018343  0.73164308  0.81106249     0.78000
C896        C  0.18457378  0.74645013  0.78544681     0.79100
C897        C  0.15909972  0.79689934  0.81221672     0.78200
Zn898      Zn  0.64455747  0.75648811  0.82076260     1.49700
Zn899      Zn  0.72066441  0.73212331  0.81880357     1.49400
Zn900      Zn  0.65868897  0.72997926  0.80224464     1.49100
Zn901      Zn  0.70698544  0.76973594  0.80570765     1.49500
O902        O  0.68264763  0.74707066  0.81178699    -1.83100
O903        O  0.65641278  0.74838225  0.83417101    -0.73700
O904        O  0.72218816  0.70420406  0.81462950    -0.73600
O905        O  0.60122235  0.72972564  0.80399950    -0.73100
O906        O  0.71148399  0.73266909  0.83292512    -0.73800
O907        O  0.59293632  0.74704315  0.81719674    -0.73400
O908        O  0.67860097  0.70200703  0.80324254    -0.73900
O909        O  0.69955221  0.76838272  0.79154863    -0.73300
O910        O  0.77258487  0.74248344  0.81627894    -0.74100
O911        O  0.67008096  0.74011596  0.78891574    -0.73500
O912        O  0.76425757  0.76937933  0.80766879    -0.73900
O913        O  0.68484097  0.79542314  0.81041948    -0.73900
O914        O  0.64071169  0.78571966  0.82070802    -0.73600
C915        C  0.68443176  0.73946146  0.83793164     0.78100
C916        C  0.70438496  0.69430766  0.80841418     0.78600
C917        C  0.57960872  0.73722231  0.81029506     0.77600
C918        C  0.68590289  0.75572544  0.78588377     0.78000
C919        C  0.78594635  0.75707344  0.81177596     0.79100
C920        C  0.65825839  0.79922777  0.81631736     0.78200
Zn921      Zn  0.35002622  0.23617282  0.92717226     1.49700
Zn922      Zn  0.40256086  0.22598780  0.94589269     1.49400
Zn923      Zn  0.42701449  0.25801331  0.93036148     1.49100
Zn924      Zn  0.35960861  0.26778197  0.94404547     1.49500
O925        O  0.38441472  0.24663512  0.93697885    -1.83100
O926        O  0.34240362  0.20747016  0.92969113    -0.73700
O927        O  0.46112356  0.22351374  0.94523236    -0.73600
O928        O  0.42622231  0.25290258  0.91652850    -0.73100
O929        O  0.37604722  0.19984995  0.94264272    -0.73800
O930        O  0.36930169  0.24052718  0.91336218    -0.73400
O931        O  0.47515664  0.24773576  0.93530530    -0.73900
O932        O  0.38102859  0.29472746  0.94096308    -0.73300
O933        O  0.38968437  0.23351650  0.95975760    -0.74100
O934        O  0.42898915  0.28689563  0.93147054    -0.73500
O935        O  0.36347939  0.26294190  0.95815500    -0.73900
O936        O  0.30397207  0.26816075  0.94101733    -0.73900
O937        O  0.29737580  0.24758005  0.92889877    -0.73600
C938        C  0.35275751  0.19521200  0.93601413     0.78100
C939        C  0.48549017  0.23415754  0.94088983     0.78600
C940        C  0.40165295  0.24696650  0.91061166     0.77600
C941        C  0.40914427  0.29959472  0.93574211     0.78000
C942        C  0.37485288  0.24886995  0.96336599     0.79100
C943        C  0.28334759  0.25943775  0.93493805     0.78200
Zn944      Zn  0.92209074  0.26040536  0.94646932     1.49700
Zn945      Zn  0.86089162  0.26474604  0.92984134     1.49400
Zn946      Zn  0.91136772  0.22561933  0.93205705     1.49100
Zn947      Zn  0.84707076  0.23439410  0.94713419     1.49500
O948        O  0.88503986  0.24641236  0.93883169    -1.83100
O949        O  0.91695908  0.28928662  0.94460716    -0.73700
O950        O  0.87728218  0.25845925  0.91628342    -0.73600
O951        O  0.96789083  0.22636615  0.93427207    -0.73100
O952        O  0.87584191  0.29298368  0.93272561    -0.73800
O953        O  0.97587587  0.25295209  0.94306441    -0.73400
O954        O  0.90572100  0.22963824  0.91811883    -0.73900
O955        O  0.84318145  0.20537610  0.94492843    -0.73300
O956        O  0.80309177  0.26240013  0.93089595    -0.74100
O957        O  0.89058742  0.19889385  0.93497885    -0.73500
O958        O  0.79533394  0.24419980  0.94389732    -0.73900
O959        O  0.85840768  0.23939545  0.96104609    -0.73900
O960        O  0.91360900  0.25528312  0.96032861    -0.73600
C961        C  0.89832251  0.30014171  0.93893438     0.78100
C962        C  0.89392001  0.24346803  0.91286303     0.78600
C963        C  0.98941758  0.23875329  0.93831227     0.77600
C964        C  0.86221696  0.19339470  0.93991974     0.78000
C965        C  0.78168140  0.25409849  0.93703288     0.79100
C966        C  0.88673026  0.24754506  0.96508570     0.78200
Zn967      Zn  0.43830548  0.26592874  0.80392076     1.49700
Zn968      Zn  0.49503901  0.26926671  0.82194082     1.49400
Zn969      Zn  0.44672547  0.22969824  0.81800408     1.49100
Zn970      Zn  0.51436757  0.24180135  0.80387100     1.49500
O971        O  0.47376237  0.25175834  0.81204395    -1.83100
O972        O  0.43433549  0.29364999  0.80812478    -0.73700
O973        O  0.47661837  0.26069625  0.83522803    -0.73600
O974        O  0.39040619  0.22969926  0.81471103    -0.73100
O975        O  0.47515552  0.29718970  0.82009913    -0.73800
O976        O  0.38546331  0.25536662  0.80510042    -0.73400
O977        O  0.44696867  0.23270851  0.83214917    -0.73900
O978        O  0.51777684  0.21275178  0.80497729    -0.73300
O979        O  0.55378146  0.26881936  0.82133360    -0.74100
O980        O  0.47171224  0.20366898  0.81490808    -0.73500
O981        O  0.56517710  0.25137829  0.80830629    -0.73900
O982        O  0.50753691  0.24879216  0.78993936    -0.73900
O983        O  0.45331649  0.26541492  0.79007591    -0.73600
C984        C  0.44989122  0.30408737  0.81448883     0.78100
C985        C  0.45790101  0.24569791  0.83797883     0.78600
C986        C  0.37041124  0.24142048  0.80973817     0.77600
C987        C  0.50028297  0.19963798  0.80966395     0.78000
C988        C  0.57699581  0.26118538  0.81539440     0.79100
C989        C  0.48140586  0.25814417  0.78560412     0.78200
Zn990      Zn  0.00915393  0.23922346  0.82596254     1.49700
Zn991      Zn  0.94013293  0.26786808  0.82067835     1.49400
Zn992      Zn  0.01457504  0.26902698  0.80832487     1.49100
Zn993      Zn  0.95782150  0.23168286  0.80719995     1.49500
O994        O  0.98058319  0.25172095  0.81551458    -1.83100
O995        O  0.98800205  0.24719832  0.83893169    -0.73700
O996        O  0.94535964  0.29597142  0.81702799    -0.73600
O997        O  0.06842512  0.26601599  0.81276372    -0.73100
O998        O  0.94046278  0.26691590  0.83478517    -0.73800
O999        O  0.06570311  0.24551201  0.82503405    -0.73400
O1000       O  0.99989279  0.29769991  0.80913504    -0.73900
O1001       O  0.97569855  0.23573098  0.79359336    -0.73300
O1002       O  0.88863243  0.25893296  0.81654377    -0.74100
O1003       O  0.01481201  0.26123332  0.79457874    -0.73500
O1004       O  0.89922705  0.23291657  0.80752855    -0.73900
O1005       O  0.97647591  0.20458093  0.81107840    -0.73900
O1006       O  0.00741982  0.20986449  0.82464072    -0.73600
C1007       C  0.96020181  0.25835978  0.84109769     0.78100
C1008       C  0.97062921  0.30586161  0.81268722     0.78600
C1009       C  0.08467113  0.25600096  0.81921098     0.77600
C1010       C  0.99871681  0.24785740  0.78977576     0.78000
C1011       C  0.87635117  0.24491295  0.81149048     0.79100
C1012       C  0.99573960  0.19836593  0.81816287     0.78200
Zn1013     Zn  0.17427039  0.98876493  0.93069388     1.49700
Zn1014     Zn  0.19779709  0.02326821  0.94489624     1.49400
Zn1015     Zn  0.24614388  0.98290600  0.94350372     1.49100
Zn1016     Zn  0.24798411  0.01309586  0.92616098     1.49500
O1017       O  0.21664232  0.00225490  0.93640838    -1.83100
O1018       O  0.12591931  0.99970115  0.93533875    -0.73700
O1019       O  0.21016165  0.01627391  0.95867664    -0.73600
O1020       O  0.22654322  0.95504073  0.94177965    -0.73100
O1021       O  0.13933136  0.02594635  0.94394515    -0.73800
O1022       O  0.17372754  0.96026596  0.93351694    -0.73400
O1023       O  0.24217898  0.98833583  0.95742485    -0.73900
O1024       O  0.30026380  0.00061411  0.92596148    -0.73300
O1025       O  0.22498647  0.04912817  0.94183395    -0.74100
O1026       O  0.30153357  0.98475580  0.93981451    -0.73500
O1027       O  0.25879148  0.04135988  0.92898090    -0.73900
O1028       O  0.22240454  0.01088562  0.91316388    -0.73900
O1029       O  0.17263464  0.99220122  0.91666106    -0.73600
C1030       C  0.11521025  0.01443492  0.94010340     0.78100
C1031       C  0.22757478  0.00182248  0.96243340     0.78600
C1032       C  0.19613109  0.94880945  0.93787718     0.77600
C1033       C  0.31828094  0.99152428  0.93246749     0.78000
C1034       C  0.24899114  0.05357212  0.93533864     0.79100
C1035       C  0.19241109  0.00170330  0.91068387     0.78200
Zn1036     Zn  0.68288357  0.02222179  0.92800556     1.49700
Zn1037     Zn  0.68224514  0.99168282  0.94551098     1.62200
Zn1038     Zn  0.73849002  0.98399053  0.92763686     1.49100
Zn1039     Zn  0.75280039  0.01908166  0.94204138     1.49500
O1040       O  0.71383923  0.00403097  0.93568077    -1.83100
O1041       O  0.62732897  0.02017494  0.93166795    -0.73700
O1042       O  0.68646679  0.96259859  0.94458990    -0.73600
O1043       O  0.72474645  0.98876191  0.91369922    -0.73100
O1044       O  0.62670401  0.99775257  0.94316950    -0.73800
O1045       O  0.68672165  0.01479008  0.91413242    -0.73400
O1046       O  0.72072661  0.95654127  0.93159688    -0.73900
O1047       O  0.80474301  0.01038534  0.93863858    -0.73300
O1048       O  0.69736962  0.99976042  0.95901851    -0.74100
O1049       O  0.79672763  0.98540667  0.92881578    -0.73500
O1050       O  0.74854173  0.01778324  0.95607501    -0.73900
O1051       O  0.74958148  0.04710478  0.93885277    -0.73900
O1052       O  0.69974715  0.05073803  0.92937819    -0.73600
C1053       C  0.60942565  0.00935283  0.93753549     0.78100
C1054       C  0.70081489  0.95068366  0.93866410     0.78600
C1055       C  0.70398175  0.00144418  0.90951430     0.77600
C1056       C  0.81835838  0.99699597  0.93342268     0.78000
C1057       C  0.72535062  0.01007461  0.96188145     0.79100
C1058       C  0.72760939  0.05792447  0.93399489     0.78200
Zn1059     Zn  0.15959480  0.99085580  0.81883213     1.49700
Zn1060     Zn  0.13492178  0.02323972  0.80367262     1.49400
Zn1061     Zn  0.08771506  0.98251197  0.80622158     1.49100
Zn1062     Zn  0.08526329  0.01502097  0.82275356     1.49500
O1063       O  0.11650687  0.00310998  0.81274869    -1.83100
O1064       O  0.20783960  0.99923264  0.81289012    -0.73700
O1065       O  0.11692941  0.01643771  0.79033607    -0.73600
O1066       O  0.10856010  0.95501982  0.80888878    -0.73100
O1067       O  0.19349028  0.02372348  0.80316205    -0.73800
O1068       O  0.15793832  0.96188909  0.81811932    -0.73400
O1069       O  0.08751401  0.98779886  0.79205395    -0.73900
O1070       O  0.03046664  0.00592038  0.82174564    -0.73300
O1071       O  0.11381620  0.05034879  0.80720243    -0.74100
O1072       O  0.03274444  0.98351370  0.81031047    -0.73500
O1073       O  0.08283928  0.04385165  0.82066016    -0.73900
O1074       O  0.10734377  0.01111331  0.83608986    -0.73900
O1075       O  0.16283958  0.99744360  0.83253011    -0.73600
C1076       C  0.21790181  0.01244077  0.80705295     0.78100
C1077       C  0.09915412  0.00185402  0.78684797     0.78600
C1078       C  0.13682889  0.94958336  0.81394236     0.77600
C1079       C  0.01409649  0.99370941  0.81626771     0.78000
C1080       C  0.09380966  0.05583652  0.81431001     0.79100
C1081       C  0.14003574  0.00473486  0.83854384     0.78200
Zn1082     Zn  0.58078417  0.01449761  0.80271524     1.49700
Zn1083     Zn  0.59042351  0.98597325  0.82060661     1.49400
Zn1084     Zn  0.65693353  0.99099289  0.80513089     1.49100
Zn1085     Zn  0.63934390  0.02595826  0.81943821     1.49500
O1086       O  0.61686392  0.00437765  0.81205724    -1.83100
O1087       O  0.52850711  0.00415520  0.80509436    -0.73700
O1088       O  0.60900768  0.95811522  0.81851284    -0.73600
O1089       O  0.65118224  0.99362517  0.79088196    -0.73100
O1090       O  0.53323941  0.98667870  0.81838105    -0.73800
O1091       O  0.59579382  0.00876518  0.78907439    -0.73400
O1092       O  0.65604865  0.96240774  0.80811730    -0.73900
O1093       O  0.69631163  0.02848049  0.81698590    -0.73300
O1094       O  0.60088891  0.99292805  0.83437340    -0.74100
O1095       O  0.70817161  0.00143743  0.80878982    -0.73500
O1096       O  0.63540919  0.02014888  0.83359173    -0.73900
O1097       O  0.61157391  0.05153355  0.81654819    -0.73900
O1098       O  0.57429449  0.04322252  0.80440837    -0.73600
C1099       C  0.51332387  0.99428649  0.81176530     0.78100
C1100       C  0.63582073  0.95136076  0.81336032     0.78600
C1101       C  0.62514498  0.00055001  0.78556923     0.77600
C1102       C  0.71966161  0.01653216  0.81321568     0.78000
C1103       C  0.61958339  0.00655607  0.83839112     0.79100
C1104       C  0.58651613  0.05579417  0.81029493     0.78200
Zn1105     Zn  0.17375920  0.48708595  0.17488699     1.49700
Zn1106     Zn  0.11659977  0.47514302  0.19190902     1.49400
Zn1107     Zn  0.16616146  0.51413333  0.19366077     1.49100
Zn1108     Zn  0.10019544  0.51284946  0.17866061     1.49500
O1109       O  0.13929272  0.49712369  0.18476070    -1.83100
O1110       O  0.17760716  0.45769449  0.17587289    -0.73700
O1111       O  0.12061490  0.47969027  0.20620043    -0.73600
O1112       O  0.22197844  0.51341636  0.19104000    -0.73100
O1113       O  0.14301448  0.44942953  0.18853499    -0.73800
O1114       O  0.22752226  0.49675485  0.17750557    -0.73400
O1115       O  0.15633388  0.50635031  0.20730967    -0.73900
O1116       O  0.09874148  0.54068126  0.18330973    -0.73300
O1117       O  0.05991447  0.47333114  0.18916117    -0.74100
O1118       O  0.14923741  0.54214206  0.19272288    -0.73500
O1119       O  0.04969976  0.50102111  0.18125299    -0.73900
O1120       O  0.10671366  0.51366213  0.16448228    -0.73900
O1121       O  0.15623074  0.49452059  0.16135746    -0.73600
C1122       C  0.16586486  0.44496224  0.18181062     0.78100
C1123       C  0.13706993  0.49272006  0.21118426     0.78600
C1124       C  0.24215348  0.50631676  0.18438292     0.77600
C1125       C  0.12100871  0.55027053  0.18869214     0.78000
C1126       C  0.03746300  0.48552041  0.18521631     0.79100
C1127       C  0.12898016  0.50549930  0.15857670     0.78200
Zn1128     Zn  0.66207463  0.51613944  0.17593039     1.49700
Zn1129     Zn  0.61100936  0.47712566  0.17685504     1.49400
Zn1130     Zn  0.67826664  0.48292296  0.19136331     1.49100
Zn1131     Zn  0.60439698  0.50961552  0.19349094     1.49500
O1132       O  0.63864263  0.49659214  0.18439055    -1.83100
O1133       O  0.64754567  0.51118923  0.16222490    -0.73700
O1134       O  0.63290371  0.44971809  0.17819878    -0.73600
O1135       O  0.72923105  0.49305029  0.18790803    -0.73100
O1136       O  0.61245050  0.48419528  0.16293718    -0.73800
O1137       O  0.71952841  0.51527263  0.17665351    -0.73400
O1138       O  0.68076693  0.45449729  0.18820204    -0.73900
O1139       O  0.62128220  0.50488881  0.20727889    -0.73300
O1140       O  0.55584617  0.47703383  0.18049996    -0.74100
O1141       O  0.67202749  0.48586240  0.20541166    -0.73500
O1142       O  0.55028109  0.50022796  0.19149710    -0.73900
O1143       O  0.60360645  0.53884309  0.19120337    -0.73900
O1144       O  0.64506427  0.54342451  0.17943931    -0.73600
C1145       C  0.62778721  0.49799263  0.15820176     0.78100
C1146       C  0.66142789  0.44334623  0.18285049     0.78600
C1147       C  0.74181744  0.50525282  0.18186099     0.77600
C1148       C  0.64898783  0.49508519  0.21072851     0.78000
C1149       C  0.53564531  0.48736334  0.18606270     0.79100
C1150       C  0.62139250  0.55007076  0.18548169     0.78200
Zn1151     Zn  0.99681986  0.49059588  0.05289819     1.49700
Zn1152     Zn  0.06534196  0.47644704  0.06593726     1.49400
Zn1153     Zn  0.07392104  0.51428839  0.05246192     1.49100
Zn1154     Zn  0.02061034  0.51676242  0.07098496     1.49500
O1155       O  0.03929158  0.49958218  0.06066297    -1.83100
O1156       O  0.99091146  0.46160791  0.05356762    -0.73700
O1157       O  0.11982812  0.47476930  0.06094192    -0.73600
O1158       O  0.05648951  0.51412365  0.03867821    -0.73100
O1159       O  0.03568165  0.45103908  0.06345981    -0.73800
O1160       O  0.00117143  0.49842008  0.03904799    -0.73400
O1161       O  0.12649139  0.50279793  0.05306670    -0.73900
O1162       O  0.03778597  0.54504230  0.06887785    -0.73300
O1163       O  0.07076280  0.47963117  0.08015528    -0.74100
O1164       O  0.07810590  0.54230523  0.05674602    -0.73500
O1165       O  0.04288556  0.50786464  0.08375047    -0.73900
O1166       O  0.96232512  0.51560319  0.07172429    -0.73900
O1167       O  0.94777219  0.49967535  0.05843044    -0.73600
C1168       C  0.00645857  0.44793063  0.05828008     0.78100
C1169       C  0.14042480  0.48707255  0.05644768     0.78600
C1170       C  0.02713099  0.50744095  0.03447583     0.77600
C1171       C  0.06191428  0.55251676  0.06312623     0.78000
C1172       C  0.06181315  0.49271999  0.08617702     0.79100
C1173       C  0.93786578  0.50818174  0.06607420     0.78200
Zn1174     Zn  0.57462410  0.51521713  0.05412304     1.49700
Zn1175     Zn  0.50743000  0.48397812  0.05253597     1.49400
Zn1176     Zn  0.57195138  0.47949335  0.06859553     1.49100
Zn1177     Zn  0.50821199  0.51367671  0.06980998     1.49500
O1178       O  0.54057518  0.49808554  0.06130852    -1.83100
O1179       O  0.56694179  0.51225569  0.04000204    -0.73700
O1180       O  0.50987979  0.45521950  0.05517955    -0.73600
O1181       O  0.62889063  0.48332810  0.06631922    -0.73100
O1182       O  0.52158758  0.48970465  0.03892026    -0.73800
O1183       O  0.62944948  0.50969237  0.05707541    -0.73400
O1184       O  0.55547338  0.45143371  0.06601079    -0.73900
O1185       O  0.51800245  0.50640791  0.08356393    -0.73300
O1186       O  0.45206973  0.49124958  0.05411213    -0.74100
O1187       O  0.56436480  0.48434174  0.08257816    -0.73500
O1188       O  0.45207301  0.51052905  0.06677249    -0.73900
O1189       O  0.51973621  0.54243741  0.06832287    -0.73900
O1190       O  0.56556571  0.54331971  0.05742840    -0.73600
C1191       C  0.54490613  0.50159387  0.03505858     0.78100
C1192       C  0.52940866  0.44440356  0.06071240     0.78600
C1193       C  0.64687180  0.49673451  0.06187778     0.77600
C1194       C  0.54213510  0.49505367  0.08746998     0.78000
C1195       C  0.43438295  0.50155580  0.06019958     0.79100
C1196       C  0.54308734  0.55191611  0.06315209     0.78200
Zn1197     Zn  0.26410169  0.26186692  0.20008074     1.49700
Zn1198     Zn  0.27889340  0.23418015  0.18158324     1.49400
Zn1199     Zn  0.32630118  0.27394522  0.18445787     1.49100
Zn1200     Zn  0.33912962  0.23770528  0.19848996     1.49500
O1201       O  0.30182746  0.25194983  0.19107008    -1.83100
O1202       O  0.21223483  0.25239616  0.19614507    -0.73700
O1203       O  0.29507961  0.24147918  0.16793979    -0.73600
O1204       O  0.30009627  0.29997453  0.18748786    -0.73100
O1205       O  0.22155619  0.23657921  0.18248818    -0.73800
O1206       O  0.26017819  0.29107446  0.19899701    -0.73400
O1207       O  0.32463609  0.26978527  0.17025635    -0.73900
O1208       O  0.39131167  0.24595800  0.19464869    -0.73300
O1209       O  0.29363629  0.20564196  0.18429398    -0.74100
O1210       O  0.38310683  0.27437653  0.18720394    -0.73500
O1211       O  0.33520612  0.20903278  0.19609063    -0.73900
O1212       O  0.33280515  0.24147506  0.21265645    -0.73900
O1213       O  0.27613579  0.25549681  0.21403750    -0.73600
C1214       C  0.19946893  0.24382738  0.18875426     0.78100
C1215       C  0.31289518  0.25638118  0.16473130     0.78600
C1216       C  0.27432912  0.30408689  0.19357700     0.77600
C1217       C  0.40469414  0.26097408  0.19046890     0.78000
C1218       C  0.31658040  0.19831844  0.19038182     0.79100
C1219       C  0.30587527  0.24804025  0.21779082     0.78200
Zn1220     Zn  0.76522643  0.26999157  0.19524112     1.49700
Zn1221     Zn  0.83540734  0.26858304  0.18113962     1.49400
Zn1222     Zn  0.82773270  0.23784364  0.19849027     1.49100
Zn1223     Zn  0.77062673  0.23435634  0.18073996     1.49500
O1224       O  0.79999391  0.25254797  0.18879258    -1.83100
O1225       O  0.77408401  0.29760602  0.19176393    -0.73700
O1226       O  0.88991799  0.26435709  0.18545965    -0.73600
O1227       O  0.80931665  0.24385723  0.21186486    -0.73100
O1228       O  0.82227901  0.29775457  0.18158363    -0.73800
O1229       O  0.76693377  0.26735869  0.20937889    -0.73400
O1230       O  0.88345158  0.24416858  0.19779470    -0.73900
O1231       O  0.78280683  0.20596182  0.18404605    -0.73300
O1232       O  0.83218786  0.26049240  0.16741285    -0.74100
O1233       O  0.82343154  0.20890775  0.19608635    -0.73500
O1234       O  0.78625821  0.23808274  0.16701642    -0.73900
O1235       O  0.71323358  0.23935528  0.18171856    -0.73900
O1236       O  0.71218439  0.26503843  0.19133609    -0.73600
C1237       C  0.79619933  0.30667813  0.18614069     0.78100
C1238       C  0.90414365  0.25428320  0.19222258     0.78600
C1239       C  0.78529377  0.25625095  0.21497347     0.77600
C1240       C  0.80520809  0.19840217  0.19017988     0.78000
C1241       C  0.81124215  0.24854858  0.16285468     0.79100
C1242       C  0.69518264  0.25270745  0.18615286     0.78200
Zn1243     Zn  0.40491564  0.26846086  0.05705829     1.49700
Zn1244     Zn  0.38422372  0.23847636  0.07421589     1.49400
Zn1245     Zn  0.33484268  0.27776430  0.07086664     1.49100
Zn1246     Zn  0.33073743  0.24309793  0.05549758     1.49500
O1247       O  0.36372737  0.25684200  0.06450526    -1.83100
O1248       O  0.45494677  0.25903187  0.06188085    -0.73700
O1249       O  0.36695293  0.24631842  0.08764593    -0.73600
O1250       O  0.35854610  0.30444566  0.06845040    -0.73100
O1251       O  0.44266943  0.23855586  0.07380883    -0.73800
O1252       O  0.40657480  0.29759890  0.05871505    -0.73400
O1253       O  0.33225170  0.27297188  0.08509080    -0.73900
O1254       O  0.27709808  0.25258807  0.05677036    -0.73300
O1255       O  0.36350820  0.21077458  0.07193699    -0.74100
O1256       O  0.27992067  0.27792713  0.06660273    -0.73500
O1257       O  0.32779682  0.21478613  0.05900159    -0.73900
O1258       O  0.34767258  0.24556431  0.04158728    -0.73900
O1259       O  0.40158528  0.26221693  0.04295500    -0.73600
C1260       C  0.46620991  0.24776120  0.06851145     0.78100
C1261       C  0.34577522  0.26010561  0.09070649     0.78600
C1262       C  0.38717193  0.30980081  0.06351423     0.77600
C1263       C  0.26105591  0.26628796  0.06137022     0.78000
C1264       C  0.34084532  0.20405123  0.06563348     0.79100
C1265       C  0.37716570  0.25332711  0.03785991     0.78200
Zn1266     Zn  0.90093100  0.26378463  0.05488807     1.49700
Zn1267     Zn  0.89247192  0.23810487  0.07366869     1.49400
Zn1268     Zn  0.84462224  0.27853833  0.07101071     1.49100
Zn1269     Zn  0.82481398  0.24029756  0.05896232     1.49500
O1270       O  0.86578801  0.25527762  0.06471412    -1.83100
O1271       O  0.95294407  0.25269521  0.05699524    -0.73700
O1272       O  0.88123945  0.24684461  0.08711165    -0.73600
O1273       O  0.87256846  0.30374853  0.06703675    -0.73100
O1274       O  0.94935792  0.23903750  0.07133834    -0.73800
O1275       O  0.91020089  0.29259945  0.05557284    -0.73400
O1276       O  0.85176918  0.27540976  0.08514465    -0.73900
O1277       O  0.77453743  0.25064804  0.06311170    -0.73300
O1278       O  0.87627995  0.20972071  0.07220275    -0.74100
O1279       O  0.78676217  0.28010253  0.06903851    -0.73500
O1280       O  0.82725005  0.21175695  0.06231269    -0.73900
O1281       O  0.82678043  0.24189837  0.04469764    -0.73900
O1282       O  0.88164756  0.25700142  0.04184328    -0.73600
C1283       C  0.96865023  0.24467512  0.06416561     0.78100
C1284       C  0.86543509  0.26211074  0.09048885     0.78600
C1285       C  0.89853928  0.30646264  0.06080408     0.77600
C1286       C  0.76325832  0.26683777  0.06652543     0.78000
C1287       C  0.84962521  0.20169458  0.06747857     0.79100
C1288       C  0.85147586  0.24858308  0.03893274     0.78200
Zn1289     Zn  0.38105558  0.97829896  0.17870173     1.49700
Zn1290     Zn  0.31379464  0.97199669  0.19382284     1.49400
Zn1291     Zn  0.36434254  0.01126490  0.19469631     1.49100
Zn1292     Zn  0.30667222  0.00444666  0.17764581     1.49500
O1293       O  0.34174429  0.99147137  0.18627463    -1.83100
O1294       O  0.38287895  0.94955258  0.18184635    -0.73700
O1295       O  0.32059989  0.97706804  0.20781412    -0.73600
O1296       O  0.42141896  0.01132821  0.19313885    -0.73100
O1297       O  0.33378397  0.94471273  0.19154126    -0.73800
O1298       O  0.43279405  0.98903496  0.18199759    -0.73400
O1299       O  0.35439788  0.00449510  0.20859127    -0.73900
O1300       O  0.30878838  0.03357023  0.17892765    -0.73300
O1301       O  0.25736942  0.97280256  0.19105308    -0.74100
O1302       O  0.34533959  0.03878607  0.19156026    -0.73500
O1303       O  0.25306412  0.99642241  0.18024683    -0.73900
O1304       O  0.31766570  0.99778142  0.16408616    -0.73900
O1305       O  0.37124875  0.98063231  0.16443909    -0.73600
C1306       C  0.36224225  0.93828062  0.18689972     0.78100
C1307       C  0.33738611  0.99021716  0.21261876     0.78600
C1308       C  0.44442862  0.00166088  0.18797946     0.77600
C1309       C  0.32422872  0.04512722  0.18483906     0.78000
C1310       C  0.23766154  0.98366497  0.18559233     0.79100
C1311       C  0.34403018  0.98852740  0.15983564     0.78200
Zn1312     Zn  0.80957112  0.00652730  0.19507396     1.49700
Zn1313     Zn  0.88404460  0.98033725  0.19205103     1.49400
Zn1314     Zn  0.81276998  0.97266195  0.17929575     1.49100
Zn1315     Zn  0.86158841  0.01268621  0.17652225     1.49500
O1316       O  0.84184762  0.99321815  0.18569557    -1.83100
O1317       O  0.82979609  0.00235049  0.20849702    -0.73700
O1318       O  0.88517246  0.95122166  0.19015026    -0.73600
O1319       O  0.75902000  0.97215185  0.18405664    -0.73100
O1320       O  0.88287116  0.98536451  0.20601247    -0.73800
O1321       O  0.75517199  0.99691256  0.19422324    -0.73400
O1322       O  0.83575576  0.94548629  0.18078920    -0.73900
O1323       O  0.84070354  0.00667554  0.16345111    -0.73300
O1324       O  0.93311601  0.98984529  0.18685639    -0.74100
O1325       O  0.80840772  0.97894090  0.16539722    -0.73500
O1326       O  0.91936679  0.01178693  0.17571770    -0.73900
O1327       O  0.84534558  0.04046269  0.17999773    -0.73900
O1328       O  0.80764749  0.03558591  0.19248746    -0.73600
C1329       C  0.85972681  0.99387812  0.21157719     0.78100
C1330       C  0.86469949  0.93946598  0.18539058     0.78600
C1331       C  0.73976966  0.98309431  0.18954178     0.77600
C1332       C  0.82021780  0.99286706  0.16016786     0.78000
C1333       C  0.94346201  0.00172426  0.18039368     0.79100
C1334       C  0.82308806  0.04695478  0.18643210     0.78200
Zn1335     Zn  0.23207963  0.02341043  0.07041458     1.49700
Zn1336     Zn  0.28127177  0.98325074  0.06957739     1.49400
Zn1337     Zn  0.22411061  0.99322085  0.05303877     1.49100
Zn1338     Zn  0.29867537  0.01848110  0.05498790     1.49500
O1339       O  0.25911109  0.00474218  0.06209558    -1.83100
O1340       O  0.24283447  0.01647350  0.08419694    -0.73700
O1341       O  0.25585898  0.95700836  0.06687021    -0.73600
O1342       O  0.17118124  0.00118522  0.05610326    -0.73100
O1343       O  0.27729538  0.98923109  0.08355588    -0.73800
O1344       O  0.17440417  0.02198409  0.06819178    -0.73400
O1345       O  0.22322958  0.96404232  0.05378551    -0.73900
O1346       O  0.28869306  0.01835059  0.04074187    -0.73300
O1347       O  0.33758326  0.98086480  0.06692177    -0.74100
O1348       O  0.23558610  0.00094129  0.03959180    -0.73500
O1349       O  0.34982381  0.00647263  0.05763257    -0.73900
O1350       O  0.30186321  0.04645142  0.05915120    -0.73900
O1351       O  0.25233751  0.05135034  0.06871493    -0.73600
C1352       C  0.26163510  0.00290912  0.08827264     0.78100
C1353       C  0.23476173  0.95180879  0.05994443     0.78600
C1354       C  0.15509177  0.01202639  0.06223176     0.77600
C1355       C  0.26219744  0.01083252  0.03576983     0.78000
C1356       C  0.36090435  0.99169110  0.06240805     0.79100
C1357       C  0.28185522  0.05761882  0.06435863     0.78200
Zn1358     Zn  0.73630147  0.01725576  0.07198829     1.49700
Zn1359     Zn  0.72068421  0.98656731  0.05559719     1.49400
Zn1360     Zn  0.78580625  0.01844242  0.05276472     1.49100
Zn1361     Zn  0.79652822  0.98252026  0.06745747     1.49500
O1362       O  0.76013434  0.00132130  0.06200251    -1.83100
O1363       O  0.67893864  0.01369877  0.07240680    -0.73700
O1364       O  0.72140262  0.99144524  0.04162043    -0.73600
O1365       O  0.78112959  0.04690395  0.05653407    -0.73100
O1366       O  0.66912235  0.99337473  0.06038909    -0.73800
O1367       O  0.74660438  0.04599698  0.06978737    -0.73400
O1368       O  0.76496665  0.01457033  0.03934328    -0.73900
O1369       O  0.84934705  0.98673687  0.06202690    -0.73300
O1370       O  0.72550450  0.95795931  0.05783057    -0.74100
O1371       O  0.84196266  0.01274565  0.05267440    -0.73500
O1372       O  0.77930993  0.95411668  0.06585322    -0.73900
O1373       O  0.80143118  0.98740829  0.08149730    -0.73900
O1374       O  0.75843507  0.01029864  0.08480214    -0.73600
C1375       C  0.65660762  0.00384519  0.06714688     0.78100
C1376       C  0.73960787  0.00293983  0.03616182     0.78600
C1377       C  0.76506104  0.05548576  0.06349688     0.77600
C1378       C  0.86303044  0.99994308  0.05659688     0.78000
C1379       C  0.74949116  0.94703600  0.06200849     0.79100
C1380       C  0.78459557  0.99852879  0.08738703     0.78200
Zn1381     Zn  0.97745611  0.76291408  0.19607452     1.49700
Zn1382     Zn  0.05009730  0.76788972  0.18289598     1.49400
Zn1383     Zn  0.04503314  0.73288582  0.19830376     1.49100
Zn1384     Zn  0.99258793  0.73210814  0.17940749     1.49500
O1385       O  0.01649467  0.74884751  0.18910883    -1.83100
O1386       O  0.97800530  0.79147219  0.19292586    -0.73700
O1387       O  0.10417106  0.76467420  0.18753786    -0.73600
O1388       O  0.02832701  0.73752397  0.21189934    -0.73100
O1389       O  0.03075868  0.79593642  0.18447201    -0.73800
O1390       O  0.98261968  0.75966687  0.21026528    -0.73400
O1391       O  0.10037487  0.73968378  0.19766940    -0.73900
O1392       O  0.00708619  0.70410580  0.18184211    -0.73300
O1393       O  0.05343942  0.76229005  0.16889504    -0.74100
O1394       O  0.04086273  0.70406886  0.19522105    -0.73500
O1395       O  0.01187185  0.73853973  0.16602194    -0.73900
O1396       O  0.93458483  0.73339308  0.18017723    -0.73900
O1397       O  0.92616075  0.75318276  0.19250017    -0.73600
C1398       C  0.00067670  0.80260540  0.18838800     0.78100
C1399       C  0.11968526  0.75233341  0.19312449     0.78600
C1400       C  0.00352862  0.74891311  0.21548064     0.77600
C1401       C  0.02563372  0.69508397  0.18826327     0.78000
C1402       C  0.03731961  0.75053323  0.16318531     0.79100
C1403       C  0.91284987  0.74209634  0.18606931     0.78200
Zn1404     Zn  0.47668149  0.76116772  0.19353528     1.49700
Zn1405     Zn  0.49283490  0.73069457  0.17680077     1.49400
Zn1406     Zn  0.54784368  0.76758854  0.18047079     1.49100
Zn1407     Zn  0.54715096  0.73216017  0.19534265     1.49500
O1408       O  0.51618093  0.74768017  0.18650123    -1.83100
O1409       O  0.42587277  0.75136956  0.18970736    -0.73700
O1410       O  0.51322671  0.73740400  0.16363755    -0.73600
O1411       O  0.52582759  0.79479832  0.18154923    -0.73100
O1412       O  0.43496630  0.73283409  0.17696573    -0.73800
O1413       O  0.47568407  0.79004837  0.19085396    -0.73400
O1414       O  0.55356114  0.76169438  0.16663194    -0.73900
O1415       O  0.60254294  0.74018082  0.19449716    -0.73300
O1416       O  0.50610177  0.70231872  0.17942743    -0.74100
O1417       O  0.60075485  0.76731949  0.18576543    -0.73500
O1418       O  0.54401201  0.70349497  0.19208359    -0.73900
O1419       O  0.52957297  0.73582963  0.20904288    -0.73900
O1420       O  0.48192413  0.75698249  0.20755191    -0.73600
C1421       C  0.41290951  0.74109469  0.18292470     0.78100
C1422       C  0.53817449  0.74975333  0.16089830     0.78600
C1423       C  0.49667857  0.80127180  0.18588828     0.77600
C1424       C  0.61898316  0.75484625  0.19068695     0.78000
C1425       C  0.52678955  0.69386768  0.18563941     0.79100
C1426       C  0.50350327  0.74642574  0.21267972     0.78200
Zn1427     Zn  0.07106835  0.74342146  0.05641051     1.49700
Zn1428     Zn  0.14257616  0.77122923  0.05769281     1.49400
Zn1429     Zn  0.07685054  0.77640766  0.07250729     1.49100
Zn1430     Zn  0.12980269  0.73772376  0.07377367     1.49500
O1431       O  0.10519059  0.75695852  0.06517347    -1.83100
O1432       O  0.08446134  0.74867633  0.04257318    -0.73700
O1433       O  0.14393085  0.79981285  0.06073766    -0.73600
O1434       O  0.02239300  0.77782977  0.06820773    -0.73100
O1435       O  0.13391403  0.76876488  0.04363357    -0.73800
O1436       O  0.01734262  0.75232825  0.05851266    -0.73400
O1437       O  0.10005143  0.80355034  0.07190611    -0.73900
O1438       O  0.11283622  0.74234723  0.08757909    -0.73300
O1439       O  0.19422982  0.76168403  0.06091363    -0.74100
O1440       O  0.07454572  0.76808837  0.08614808    -0.73500
O1441       O  0.18793124  0.73986032  0.07258599    -0.73900
O1442       O  0.11290637  0.70983134  0.07052430    -0.73900
O1443       O  0.07148115  0.71444539  0.05877441    -0.73600
C1444       C  0.10990326  0.75932460  0.03868951     0.78100
C1445       C  0.12639950  0.81048959  0.06668228     0.78600
C1446       C  0.00251608  0.76637962  0.06312500     0.77600
C1447       C  0.08965145  0.75469327  0.09115873     0.78000
C1448       C  0.20866552  0.75012636  0.06702013     0.79100
C1449       C  0.08886568  0.70320204  0.06453222     0.78200
Zn1450     Zn  0.64352310  0.76879927  0.05576024     1.49700
Zn1451     Zn  0.57529634  0.73847266  0.05405273     1.49400
Zn1452     Zn  0.62944550  0.73839405  0.07248881     1.49100
Zn1453     Zn  0.57107417  0.77410401  0.06886456     1.49500
O1454       O  0.60461314  0.75485737  0.06282977    -1.83100
O1455       O  0.64004627  0.76349315  0.04182100    -0.73700
O1456       O  0.58201919  0.70983750  0.05716697    -0.73600
O1457       O  0.68669897  0.74181216  0.07253440    -0.73100
O1458       O  0.59193475  0.74261498  0.04035244    -0.73800
O1459       O  0.69526650  0.76086041  0.05992189    -0.73400
O1460       O  0.62017141  0.70992446  0.06977604    -0.73900
O1461       O  0.56854498  0.76886955  0.08292312    -0.73300
O1462       O  0.51939620  0.74446684  0.05518519    -0.74100
O1463       O  0.60828715  0.74413415  0.08555920    -0.73500
O1464       O  0.51676617  0.77086854  0.06436343    -0.73900
O1465       O  0.58971987  0.80210005  0.06690544    -0.73900
O1466       O  0.64098180  0.79764155  0.05792951    -0.73600
C1467       C  0.61858071  0.75286901  0.03672631     0.78100
C1468       C  0.60079767  0.70082385  0.06356565     0.78600
C1469       C  0.70849500  0.75074212  0.06674690     0.77600
C1470       C  0.58400416  0.75656557  0.08850518     0.78000
C1471       C  0.50050255  0.75774268  0.05939205     0.79100
C1472       C  0.61868785  0.80882285  0.06251333     0.78200
C1473       C  0.81573459  0.75833767  0.06270758     0.19700
C1474       C  0.83730173  0.77416654  0.05935127    -0.18400
C1475       C  0.87692376  0.77306929  0.05900782    -0.10700
C1476       C  0.89567106  0.75596679  0.06192203     0.22000
C1477       C  0.87416394  0.74002594  0.06516141    -0.20000
C1478       C  0.83451183  0.74120288  0.06561409    -0.10800
C1479       C  0.93748850  0.75410342  0.06136531    -0.15000
C1480       C  0.96110013  0.76921495  0.06285547    -0.28900
C1481       C  0.77376432  0.75982472  0.06240123    -0.03100
C1482       C  0.75008899  0.74915522  0.06786344    -0.39700
H1483       H  0.82340320  0.78739504  0.05692687     0.13100
H1484       H  0.89272246  0.78540988  0.05623775     0.12700
H1485       H  0.88810641  0.72663262  0.06734108     0.12200
H1486       H  0.81874525  0.72850416  0.06796023     0.12400
H1487       H  0.94926186  0.73956238  0.06038398     0.15200
H1488       H  0.94986095  0.78345083  0.06475965     0.13900
H1489       H  0.76187140  0.77047731  0.05748707     0.11600
H1490       H  0.76113367  0.73920140  0.07320583     0.13600
C1491       C  0.39407472  0.76780152  0.06355252     0.19700
C1492       C  0.37141456  0.78461553  0.06379579    -0.18400
C1493       C  0.33179236  0.78307654  0.06408349    -0.10700
C1494       C  0.31406924  0.76470241  0.06441843     0.22000
C1495       C  0.33673385  0.74780827  0.06439950    -0.20000
C1496       C  0.37641654  0.74935074  0.06395184    -0.10800
C1497       C  0.27197055  0.76388282  0.06413145    -0.15000
C1498       C  0.25062415  0.74921123  0.06770789    -0.28900
C1499       C  0.43605108  0.76990417  0.06326513    -0.03100
C1500       C  0.45861344  0.75702893  0.05878029    -0.39700
H1501       H  0.38439042  0.79896531  0.06359161     0.13100
H1502       H  0.31487940  0.79630609  0.06404799     0.12700
H1503       H  0.32392877  0.73343528  0.06449875     0.12200
H1504       H  0.39321705  0.73610543  0.06402569     0.12400
H1505       H  0.25774966  0.77651844  0.06106546     0.15200
H1506       H  0.26372387  0.73709126  0.07146581     0.13900
H1507       H  0.44859897  0.78248851  0.06676340     0.11600
H1508       H  0.44602782  0.74501623  0.05485224     0.13600
C1509       C  0.57367990  0.74423078  0.11506096     0.19700
C1510       C  0.59941840  0.74175731  0.12257510    -0.18400
C1511       C  0.58637239  0.74083351  0.13195547    -0.10700
C1512       C  0.54718893  0.74196893  0.13395443     0.22000
C1513       C  0.52134567  0.74371427  0.12641790    -0.20000
C1514       C  0.53444266  0.74503261  0.11704914    -0.10800
C1515       C  0.53280451  0.74114170  0.14384667    -0.15000
C1516       C  0.55104434  0.75028090  0.15093479    -0.28900
C1517       C  0.58820756  0.74517840  0.10518266    -0.03100
C1518       C  0.57185187  0.75651339  0.09853549    -0.39700
H1519       H  0.62969197  0.74077887  0.12118662     0.13100
H1520       H  0.60687758  0.73896778  0.13763050     0.12700
H1521       H  0.49103359  0.74435473  0.12779984     0.12200
H1522       H  0.51383435  0.74633146  0.11136282     0.12400
H1523       H  0.50591707  0.73381059  0.14522669     0.15200
H1524       H  0.57630135  0.75887399  0.14935967     0.13900
H1525       H  0.61341878  0.73673647  0.10341663     0.11600
H1526       H  0.54819461  0.76592240  0.10046537     0.13600
C1527       C  0.80568007  0.74789003  0.19125857     0.19700
C1528       C  0.78375033  0.76387248  0.19423059    -0.18400
C1529       C  0.74430510  0.76227962  0.19509141    -0.10700
C1530       C  0.72592767  0.74455123  0.19303999     0.22000
C1531       C  0.74790922  0.72839045  0.19030903    -0.20000
C1532       C  0.78744593  0.73003933  0.18936036    -0.10800
C1533       C  0.68395077  0.74254954  0.19359604    -0.15000
C1534       C  0.66038097  0.75747905  0.19162213    -0.28900
C1535       C  0.84758908  0.75018636  0.19090668    -0.03100
C1536       C  0.87119271  0.73920006  0.18557994    -0.39700
H1537       H  0.79722969  0.77767416  0.19590773     0.13100
H1538       H  0.72839658  0.77486578  0.19749463     0.12700
H1539       H  0.73438828  0.71452199  0.18879674     0.12200
H1540       H  0.80360827  0.71725410  0.18735037     0.12400
H1541       H  0.67216936  0.72805386  0.19474870     0.15200
H1542       H  0.67192177  0.77161442  0.18962093     0.13900
H1543       H  0.85950723  0.76190757  0.19517252     0.11600
H1544       H  0.86004795  0.72813392  0.18082440     0.13600
C1545       C  0.22616538  0.75288911  0.18739136     0.19700
C1546       C  0.24619862  0.74761913  0.17915138    -0.18400
C1547       C  0.28564323  0.74483794  0.17942829    -0.10700
C1548       C  0.30574380  0.74748558  0.18798172     0.22000
C1549       C  0.28555134  0.75277668  0.19619830    -0.20000
C1550       C  0.24623760  0.75545606  0.19592694    -0.10800
C1551       C  0.34783141  0.74654457  0.18861095    -0.15000
C1552       C  0.37121719  0.73921536  0.18190711    -0.28900
C1553       C  0.18448871  0.75591401  0.18686378    -0.03100
C1554       C  0.16123932  0.75194013  0.19420505    -0.39700
H1555       H  0.23126717  0.74566751  0.17248243     0.13100
H1556       H  0.30013782  0.74118263  0.17289176     0.12700
H1557       H  0.30036525  0.75517572  0.20284974     0.12200
H1558       H  0.23181949  0.76000453  0.20235311     0.12400
H1559       H  0.36035342  0.75269545  0.19500606     0.15200
H1560       H  0.36009588  0.73216705  0.17560013     0.13900
H1561       H  0.17226386  0.75990718  0.18002852     0.11600
H1562       H  0.17265827  0.74593317  0.20076187     0.13600
C1563       C  0.04981276  0.74002814  0.13638198     0.19700
C1564       C  0.02478068  0.73959744  0.12862449    -0.18400
C1565       C  0.03880760  0.74006179  0.11930609    -0.10700
C1566       C  0.07826159  0.74048258  0.11756666     0.22000
C1567       C  0.10335050  0.73997849  0.12531143    -0.20000
C1568       C  0.08930774  0.73999342  0.13464102    -0.10800
C1569       C  0.09345023  0.74147908  0.10770951    -0.15000
C1570       C  0.07779928  0.75348189  0.10123005    -0.28900
C1571       C  0.03423043  0.74013057  0.14622040    -0.03100
C1572       C  0.05040410  0.75068437  0.15318129    -0.39700
H1573       H  0.99429900  0.73931471  0.12978254     0.13100
H1574       H  0.01881006  0.73996482  0.11344918     0.12700
H1575       H  0.13382633  0.74003214  0.12413855     0.12200
H1576       H  0.10933852  0.73976805  0.14048770     0.12400
H1577       H  0.11845850  0.73293587  0.10589373     0.15200
H1578       H  0.05448674  0.76292156  0.10339160     0.13900
H1579       H  0.00827074  0.73201226  0.14765796     0.11600
H1580       H  0.07488287  0.75978201  0.15151822     0.13600
C1581       C  0.67248320  0.85800667  0.06060858     0.19700
C1582       C  0.71139066  0.86276867  0.06085566    -0.18400
C1583       C  0.72337737  0.88226796  0.06087800    -0.10700
C1584       C  0.69654747  0.89748412  0.06056767     0.22000
C1585       C  0.65764086  0.89270015  0.06025274    -0.20000
C1586       C  0.64566048  0.87321285  0.06030237    -0.10800
C1587       C  0.70757303  0.91844993  0.06006090    -0.15000
C1588       C  0.74188360  0.92576579  0.06254321    -0.28900
C1589       C  0.66132478  0.83707205  0.06016923    -0.03100
C1590       C  0.62710018  0.83000602  0.06288024    -0.39700
H1591       H  0.73266869  0.85132189  0.06097549     0.13100
H1592       H  0.75359133  0.88526523  0.06088458     0.12700
H1593       H  0.63634726  0.90411974  0.05988883     0.12200
H1594       H  0.61550815  0.87016959  0.05983707     0.12400
H1595       H  0.68552345  0.92853354  0.05774982     0.15200
H1596       H  0.76397017  0.91635051  0.06537613     0.13900
H1597       H  0.68306721  0.82686576  0.05782431     0.11600
H1598       H  0.60566328  0.83963778  0.06584194     0.13600
C1599       C  0.54922586  0.99448280  0.06453830     0.19700
C1600       C  0.52656742  0.97801621  0.06271913    -0.18400
C1601       C  0.48706789  0.97979302  0.06182748    -0.10700
C1602       C  0.46960672  0.99819069  0.06263363     0.22000
C1603       C  0.49228057  0.01462147  0.06445441    -0.20000
C1604       C  0.53164978  0.01281685  0.06544846    -0.10800
C1605       C  0.42820104  0.00106052  0.06120600    -0.15000
C1606       C  0.40190832  0.98728064  0.06304468    -0.28900
C1607       C  0.59119646  0.99241049  0.06442698    -0.03100
C1608       C  0.61516762  0.00495580  0.06872112    -0.39700
H1609       H  0.53955957  0.96379116  0.06182243     0.13100
H1610       H  0.47055841  0.96689309  0.06019181     0.12700
H1611       H  0.47949694  0.02897119  0.06501131     0.12200
H1612       H  0.54826487  0.02592238  0.06653719     0.12400
H1613       H  0.41881732  0.01559837  0.05914698     0.15200
H1614       H  0.41033668  0.97313634  0.06583523     0.13900
H1615       H  0.60283216  0.98021459  0.06043467     0.11600
H1616       H  0.60434861  0.01643977  0.07328704     0.13600
C1617       C  0.05058044  0.99682412  0.05821590     0.19700
C1618       C  0.02635892  0.01272684  0.05999926    -0.18400
C1619       C  0.98682978  0.01014698  0.05999925    -0.10700
C1620       C  0.97090847  0.99161805  0.05829578     0.22000
C1621       C  0.99509584  0.97575427  0.05662447    -0.20000
C1622       C  0.03451804  0.97839969  0.05643241    -0.10800
C1623       C  0.92925681  0.98840297  0.05868667    -0.15000
C1624       C  0.90450624  0.00147003  0.05515065    -0.28900
C1625       C  0.09257681  0.99881330  0.05780368    -0.03100
C1626       C  0.11296411  0.01236848  0.06255107    -0.39700
H1627       H  0.03776046  0.02717562  0.06123900     0.13100
H1628       H  0.96874547  0.02256918  0.06149197     0.12700
H1629       H  0.98343106  0.96134727  0.05535793     0.12200
H1630       H  0.05259936  0.96593724  0.05499167     0.12400
H1631       H  0.91885727  0.97497580  0.06190411     0.15200
H1632       H  0.91513082  0.01429107  0.05142889     0.13900
H1633       H  0.10761832  0.98769618  0.05377436     0.11600
H1634       H  0.09896041  0.02288141  0.06713259     0.13600
C1635       C  0.17760241  0.85990761  0.06309535     0.19700
C1636       C  0.19227307  0.86964521  0.05510478    -0.18400
C1637       C  0.20736144  0.88845871  0.05590565    -0.10700
C1638       C  0.20838766  0.89793152  0.06477391     0.22000
C1639       C  0.19456871  0.88800429  0.07281297    -0.20000
C1640       C  0.17910838  0.86922608  0.07199303    -0.10800
C1641       C  0.22403556  0.91800909  0.06586113    -0.15000
C1642       C  0.22241534  0.93133311  0.05883059    -0.28900
C1643       C  0.16347411  0.83959587  0.06196908    -0.03100
C1644       C  0.13749029  0.83121925  0.06773637    -0.39700
H1645       H  0.19212813  0.86263910  0.04820596     0.13100
H1646       H  0.21887166  0.89534698  0.04959686     0.12700
H1647       H  0.19550879  0.89485978  0.07974187     0.12200
H1648       H  0.16925150  0.86190439  0.07836110     0.12400
H1649       H  0.23474694  0.92233080  0.07279196     0.15200
H1650       H  0.20892027  0.92759239  0.05213667     0.13900
H1651       H  0.17470193  0.83127998  0.05602136     0.11600
H1652       H  0.12432489  0.83958813  0.07339613     0.13600
C1653       C  0.94481578  0.85136461  0.18893648     0.19700
C1654       C  0.90605263  0.85583528  0.18778490    -0.18400
C1655       C  0.89352679  0.87524273  0.18757955    -0.10700
C1656       C  0.91959537  0.89069457  0.18860962     0.22000
C1657       C  0.95831727  0.88619603  0.18987829    -0.20000
C1658       C  0.97088545  0.86678142  0.18999351    -0.10800
C1659       C  0.90756243  0.91157739  0.18883617    -0.15000
C1660       C  0.87471844  0.91843069  0.18512051    -0.28900
C1661       C  0.95638809  0.83049251  0.18960243    -0.03100
C1662       C  0.99155571  0.82369017  0.18758672    -0.39700
H1663       H  0.88527906  0.84422773  0.18709892     0.13100
H1664       H  0.86335526  0.87798206  0.18686698     0.12700
H1665       H  0.97897261  0.89777756  0.19082588     0.12200
H1666       H  0.00079694  0.86392549  0.19117437     0.12400
H1667       H  0.92743118  0.92190808  0.19195303     0.15200
H1668       H  0.85525241  0.90865815  0.18150437     0.13900
H1669       H  0.93431009  0.82011168  0.19157140     0.11600
H1670       H  0.01347811  0.83349468  0.18496903     0.13600
C1671       C  0.78983184  0.00594806  0.11441114     0.19700
C1672       C  0.76260582  0.00494355  0.12168440    -0.18400
C1673       C  0.77395697  0.00418906  0.13119801    -0.10700
C1674       C  0.81279734  0.00486898  0.13358284     0.22000
C1675       C  0.83995866  0.00655295  0.12633023    -0.20000
C1676       C  0.82865555  0.00689399  0.11680907    -0.10800
C1677       C  0.82546559  0.00448039  0.14360097    -0.15000
C1678       C  0.80863981  0.99301130  0.15011356    -0.28900
C1679       C  0.77704925  0.00652963  0.10439333    -0.03100
C1680       C  0.79671963  0.99781331  0.09740173    -0.39700
H1681       H  0.73254150  0.00449636  0.11998921     0.13100
H1682       H  0.75237116  0.00341928  0.13668558     0.12700
H1683       H  0.86997940  0.00738253  0.12803902     0.12200
H1684       H  0.85023197  0.00824626  0.11134761     0.12400
H1685       H  0.85015028  0.01315307  0.14555692     0.15200
H1686       H  0.78590043  0.98318801  0.14798754     0.13900
H1687       H  0.74999848  0.01351423  0.10281116     0.11600
H1688       H  0.82230734  0.98958957  0.09907458     0.13600
C1689       C  0.63198641  0.99270672  0.19169890     0.19700
C1690       C  0.61047134  0.00981910  0.19290542    -0.18400
C1691       C  0.57130257  0.00995835  0.19109255    -0.10700
C1692       C  0.55274796  0.99285416  0.18806977     0.22000
C1693       C  0.57411012  0.97571821  0.18698688    -0.20000
C1694       C  0.61310762  0.97553223  0.18886192    -0.10800
C1695       C  0.51142445  0.99209238  0.18588510    -0.15000
C1696       C  0.48564444  0.00476273  0.18932619    -0.28900
C1697       C  0.67400471  0.99368545  0.19308621    -0.03100
C1698       C  0.69831141  0.97995532  0.18992332    -0.39700
H1699       H  0.62416863  0.02327160  0.19506415     0.13100
H1700       H  0.55604491  0.02357349  0.19185328     0.12700
H1701       H  0.56047936  0.96230812  0.18473586     0.12200
H1702       H  0.62792538  0.96182391  0.18807873     0.12400
H1703       H  0.50144260  0.97966004  0.18178981     0.15200
H1704       H  0.49437723  0.01663675  0.19392285     0.13900
H1705       H  0.68562621  0.00705059  0.19606516     0.11600
H1706       H  0.68790520  0.96692914  0.18644102     0.13600
C1707       C  0.05118036  0.99135338  0.18065810     0.19700
C1708       C  0.07226857  0.97454165  0.18286786    -0.18400
C1709       C  0.11193848  0.97484518  0.18265258    -0.10700
C1710       C  0.13142123  0.99212170  0.18031033     0.22000
C1711       C  0.11037899  0.00878918  0.17781358    -0.20000
C1712       C  0.07060286  0.00849308  0.17803156    -0.10800
C1713       C  0.17352469  0.99329917  0.18032111    -0.15000
C1714       C  0.19595610  0.98144835  0.18553192    -0.28900
C1715       C  0.00934338  0.99054489  0.18186542    -0.03100
C1716       C  0.98445932  0.00361936  0.17829976    -0.39700
H1717       H  0.05796677  0.96111730  0.18486159     0.13100
H1718       H  0.12707181  0.96150525  0.18428684     0.12700
H1719       H  0.12479360  0.02223904  0.17592068     0.12200
H1720       H  0.05545473  0.02184061  0.17643354     0.12400
H1721       H  0.18643737  0.00501393  0.17620324     0.15200
H1722       H  0.18371329  0.97030753  0.19009982     0.13900
H1723       H  0.99842365  0.97826694  0.18595990     0.11600
H1724       H  0.99380777  0.01544788  0.17371838     0.13600
C1725       C  0.44197909  0.85022981  0.18717935     0.19700
C1726       C  0.40321091  0.85480953  0.18815220    -0.18400
C1727       C  0.39041479  0.87404378  0.18713792    -0.10700
C1728       C  0.41633653  0.88923092  0.18523632     0.22000
C1729       C  0.45509794  0.88465297  0.18426627    -0.20000
C1730       C  0.46789447  0.86542180  0.18528260    -0.10800
C1731       C  0.40428371  0.90993000  0.18407975    -0.15000
C1732       C  0.37167125  0.91729096  0.18762269    -0.28900
C1733       C  0.45406955  0.82953932  0.18836770    -0.03100
C1734       C  0.48695455  0.82219920  0.18496281    -0.39700
H1735       H  0.38261954  0.84340068  0.18960169     0.13100
H1736       H  0.36020593  0.87681222  0.18770162     0.12700
H1737       H  0.47569266  0.89606517  0.18282604     0.12200
H1738       H  0.49810730  0.86266686  0.18472722     0.12400
H1739       H  0.42415840  0.91976328  0.18057252     0.15200
H1740       H  0.35228645  0.90807916  0.19162547     0.13900
H1741       H  0.43411368  0.81971151  0.19184975     0.11600
H1742       H  0.50652154  0.83138791  0.18100462     0.13600
C1743       C  0.30875938  0.99320424  0.13379564     0.19700
C1744       C  0.27410533  0.99961816  0.12990998    -0.18400
C1745       C  0.26784007  0.99928462  0.12010951    -0.10700
C1746       C  0.29633841  0.99263521  0.11389559     0.22000
C1747       C  0.33088758  0.98598440  0.11775440    -0.20000
C1748       C  0.33721724  0.98634158  0.12759161    -0.10800
C1749       C  0.29064085  0.99195985  0.10341655    -0.15000
C1750       C  0.26564165  0.00341245  0.09872850    -0.28900
C1751       C  0.31349289  0.99433497  0.14430574    -0.03100
C1752       C  0.34274956  0.98680327  0.14933744    -0.39700
H1753       H  0.25153871  0.00485755  0.13449615     0.13100
H1754       H  0.24037725  0.00394375  0.11748288     0.12700
H1755       H  0.35325154  0.98068272  0.11312534     0.12200
H1756       H  0.36447212  0.98141810  0.13021643     0.12400
H1757       H  0.30888911  0.98222180  0.09936883     0.15200
H1758       H  0.24898380  0.01419683  0.10253570     0.13900
H1759       H  0.29084476  0.00167782  0.14816571     0.11600
H1760       H  0.36563124  0.97897936  0.14585934     0.13600
C1761       C  0.80043637  0.10873309  0.06166768     0.19700
C1762       C  0.83709461  0.11690053  0.06157674    -0.18400
C1763       C  0.84225427  0.13705648  0.06263357    -0.10700
C1764       C  0.81067047  0.14950706  0.06363486     0.22000
C1765       C  0.77398527  0.14136766  0.06354015    -0.20000
C1766       C  0.76886253  0.12118293  0.06265366    -0.10800
C1767       C  0.81483526  0.17108965  0.06407667    -0.15000
C1768       C  0.84536958  0.18018980  0.06781215    -0.28900
C1769       C  0.79597606  0.08732249  0.06034946    -0.03100
C1770       C  0.76784601  0.07693548  0.06445512    -0.39700
H1771       H  0.86183227  0.10763664  0.06069758     0.13100
H1772       H  0.87087021  0.14288700  0.06237603     0.12700
H1773       H  0.74917999  0.15068314  0.06412811     0.12200
H1774       H  0.74017660  0.11542465  0.06248971     0.12400
H1775       H  0.79144599  0.17982063  0.06132751     0.15200
H1776       H  0.86786284  0.17174070  0.07114939     0.13900
H1777       H  0.81785776  0.07969832  0.05634678     0.11600
H1778       H  0.74773394  0.08413067  0.06915013     0.13600
C1779       C  0.29203865  0.11193574  0.07132364     0.19700
C1780       C  0.26793353  0.12819769  0.07065023    -0.18400
C1781       C  0.28287334  0.14714919  0.07105236    -0.10700
C1782       C  0.32217960  0.15018157  0.07235620     0.22000
C1783       C  0.34592322  0.13393469  0.07361408    -0.20000
C1784       C  0.33111825  0.11498257  0.07299829    -0.10800
C1785       C  0.33880468  0.17016560  0.07229345    -0.15000
C1786       C  0.32716920  0.18363105  0.06596203    -0.28900
C1787       C  0.27608461  0.09192688  0.07022878    -0.03100
C1788       C  0.29506872  0.07801441  0.06544224    -0.39700
H1789       H  0.23767561  0.12622993  0.06952661     0.13100
H1790       H  0.26370143  0.15944263  0.07032977     0.12700
H1791       H  0.37615262  0.13590918  0.07478085     0.12200
H1792       H  0.35024753  0.10270545  0.07383718     0.12400
H1793       H  0.36189852  0.17351126  0.07715847     0.15200
H1794       H  0.30574859  0.17958818  0.06075023     0.13900
H1795       H  0.24781764  0.08888776  0.07300026     0.11600
H1796       H  0.32217490  0.08167217  0.06216043     0.13600
C1797       C  0.65523738  0.25662821  0.06774139     0.19700
C1798       C  0.63596196  0.27336497  0.06454525    -0.18400
C1799       C  0.59617225  0.27362129  0.06418053    -0.10700
C1800       C  0.57474748  0.25728460  0.06705450     0.22000
C1801       C  0.59407076  0.24062758  0.07036187    -0.20000
C1802       C  0.63387584  0.24032177  0.07065269    -0.10800
C1803       C  0.53267266  0.25795384  0.06590488    -0.15000
C1804       C  0.50768230  0.24569000  0.07013690    -0.28900
C1805       C  0.69733277  0.25490199  0.06732805    -0.03100
C1806       C  0.72180457  0.27009934  0.06754431    -0.39700
H1807       H  0.65144483  0.28599448  0.06199311     0.13100
H1808       H  0.58205344  0.28657283  0.06149571     0.12700
H1809       H  0.57880951  0.22757977  0.07242889     0.12200
H1810       H  0.64810076  0.22714292  0.07302029     0.12400
H1811       H  0.52163774  0.26959461  0.06141644     0.15200
H1812       H  0.51730827  0.23456715  0.07508055     0.13900
H1813       H  0.70875622  0.24017286  0.06691152     0.11600
H1814       H  0.71157811  0.28487502  0.06864240     0.13600
C1815       C  0.15513051  0.25331408  0.05921607     0.19700
C1816       C  0.13501929  0.23624215  0.06154847    -0.18400
C1817       C  0.09523707  0.23610226  0.06153792    -0.10700
C1818       C  0.07489229  0.25302563  0.05905148     0.22000
C1819       C  0.09502812  0.26999271  0.05656275    -0.20000
C1820       C  0.13478654  0.27021903  0.05671145    -0.10800
C1821       C  0.03278946  0.25334897  0.05863615    -0.15000
C1822       C  0.01038476  0.24241645  0.06430710    -0.28900
C1823       C  0.19723226  0.25270836  0.05904073    -0.03100
C1824       C  0.21934856  0.26826378  0.06094042    -0.39700
H1825       H  0.15016175  0.22297804  0.06338767     0.13100
H1826       H  0.08056290  0.22264588  0.06324873     0.12700
H1827       H  0.07991160  0.28313522  0.05451542     0.12200
H1828       H  0.14947083  0.28345607  0.05463299     0.12400
H1829       H  0.01974896  0.26400776  0.05391087     0.15200
H1830       H  0.02282670  0.23285058  0.06962958     0.13900
H1831       H  0.21053338  0.23858001  0.05786733     0.11600
H1832       H  0.20670423  0.28208641  0.06300050     0.13600
C1833       C  0.80477962  0.14320848  0.18437631     0.19700
C1834       C  0.77653166  0.12912294  0.18272689    -0.18400
C1835       C  0.78585337  0.10923517  0.18234419    -0.10700
C1836       C  0.82385633  0.10308621  0.18335722     0.22000
C1837       C  0.85226960  0.11721180  0.18468743    -0.20000
C1838       C  0.84284560  0.13704800  0.18530083    -0.10800
C1839       C  0.83452175  0.08209227  0.18276062    -0.15000
C1840       C  0.81347960  0.06799875  0.18688629    -0.28900
C1841       C  0.79427350  0.16427170  0.18466963    -0.03100
C1842       C  0.81225093  0.17708247  0.19035684    -0.39700
H1843       H  0.74713057  0.13351150  0.18182750     0.13100
H1844       H  0.76345400  0.09869583  0.18107657     0.12700
H1845       H  0.88178898  0.11285619  0.18535394     0.12200
H1846       H  0.86548747  0.14757423  0.18628492     0.12400
H1847       H  0.86117901  0.07828119  0.17931065     0.15200
H1848       H  0.78856375  0.07207544  0.19101055     0.13900
H1849       H  0.77092395  0.16924373  0.18021617     0.11600
H1850       H  0.83402128  0.17182966  0.19521293     0.13600
C1851       C  0.86012719  0.25189405  0.11735278     0.19700
C1852       C  0.84599120  0.23594400  0.12253025    -0.18400
C1853       C  0.83934643  0.23748923  0.13229621    -0.10700
C1854       C  0.84707411  0.25505806  0.13709863     0.22000
C1855       C  0.86227245  0.27083224  0.13195599    -0.20000
C1856       C  0.86857159  0.26933658  0.12216878    -0.10800
C1857       C  0.84113856  0.25720312  0.14749707    -0.15000
C1858       C  0.81597660  0.24644008  0.15248315    -0.28900
C1859       C  0.86638452  0.24974818  0.10698567    -0.03100
C1860       C  0.86214927  0.26467395  0.10085719    -0.39700
H1861       H  0.83979318  0.22227854  0.11898759     0.13100
H1862       H  0.82892588  0.22477064  0.13605674     0.12700
H1863       H  0.86911689  0.28439548  0.13551786     0.12200
H1864       H  0.88060269  0.28171883  0.11842893     0.12400
H1865       H  0.85744028  0.26842915  0.15112680     0.15200
H1866       H  0.79800200  0.23586337  0.14891587     0.13900
H1867       H  0.87194230  0.23518907  0.10425460     0.11600
H1868       H  0.85355881  0.27894163  0.10343816     0.13600
C1869       C  0.31123774  0.14222312  0.18684023     0.19700
C1870       C  0.30325951  0.12987181  0.17915077    -0.18400
C1871       C  0.30969226  0.10972163  0.17981335    -0.10700
C1872       C  0.32375865  0.10136725  0.18829138     0.22000
C1873       C  0.33145211  0.11372812  0.19599472    -0.20000
C1874       C  0.32504146  0.13384585  0.19532934    -0.10800
C1875       C  0.33140638  0.08002596  0.18939551    -0.15000
C1876       C  0.31680791  0.06625951  0.18363962    -0.28900
C1877       C  0.30443224  0.16364841  0.18581191    -0.03100
C1878       C  0.32263894  0.17700197  0.19113768    -0.39700
H1879       H  0.29256746  0.13588293  0.17253874     0.13100
H1880       H  0.30419296  0.10094405  0.17359279     0.12700
H1881       H  0.34214330  0.10776197  0.20261716     0.12200
H1882       H  0.33039140  0.14264771  0.20155644     0.12400
H1883       H  0.34892891  0.07543306  0.19536265     0.15200
H1884       H  0.29802663  0.07035036  0.17785881     0.13900
H1885       H  0.28487942  0.16857294  0.18032257     0.11600
H1886       H  0.34364622  0.17230061  0.19630673     0.13600
C1887       C  0.50977067  0.24567748  0.18733888     0.19700
C1888       C  0.53110231  0.26220912  0.18466879    -0.18400
C1889       C  0.56997151  0.26052563  0.18272287    -0.10700
C1890       C  0.58844534  0.24234769  0.18348312     0.22000
C1891       C  0.56696868  0.22578408  0.18578887    -0.20000
C1892       C  0.52812393  0.22744964  0.18775097    -0.10800
C1893       C  0.63031859  0.24047703  0.18246399    -0.15000
C1894       C  0.65358509  0.25461860  0.18554512    -0.28900
C1895       C  0.46857411  0.24649254  0.18975117    -0.03100
C1896       C  0.44615473  0.26239982  0.18891931    -0.39700
H1897       H  0.51840534  0.27652726  0.18417135     0.13100
H1898       H  0.58557043  0.27351809  0.18069001     0.12700
H1899       H  0.58052363  0.21162559  0.18638349     0.12200
H1900       H  0.51242256  0.21442448  0.18970751     0.12400
H1901       H  0.64218264  0.22659620  0.18019290     0.15200
H1902       H  0.64152387  0.26781479  0.18857911     0.13900
H1903       H  0.45559829  0.23284101  0.19202775     0.11600
H1904       H  0.45725258  0.27618230  0.18634390     0.13600
C1905       C  0.01259564  0.25792733  0.18868884     0.19700
C1906       C  0.03655643  0.25486679  0.18084442    -0.18400
C1907       C  0.07583773  0.25257624  0.18210799    -0.10700
C1908       C  0.09184787  0.25352378  0.19127203     0.22000
C1909       C  0.06796671  0.25718270  0.19905526    -0.20000
C1910       C  0.02879318  0.25931302  0.19780330    -0.10800
C1911       C  0.13340991  0.25210774  0.19298866    -0.15000
C1912       C  0.15796240  0.24301044  0.18713823    -0.28900
C1913       C  0.97092090  0.25977205  0.18719638    -0.03100
C1914       C  0.94559885  0.25385991  0.19377535    -0.39700
H1915       H  0.02479431  0.25405842  0.17373714     0.13100
H1916       H  0.09351160  0.25049597  0.17589295     0.12700
H1917       H  0.07969183  0.25840366  0.20615324     0.12200
H1918       H  0.01138609  0.26235585  0.20397373     0.12400
H1919       H  0.14419739  0.25889970  0.19942492     0.15200
H1920       H  0.14778730  0.23552791  0.18084032     0.13900
H1921       H  0.96085978  0.26488886  0.18032091     0.11600
H1922       H  0.95548957  0.24722428  0.20034431     0.13600
C1923       C  0.34043102  0.25171079  0.11797723     0.19700
C1924       C  0.36760961  0.25245148  0.12527757    -0.18400
C1925       C  0.35645945  0.25178235  0.13484937    -0.10700
C1926       C  0.31782027  0.24982563  0.13734355     0.22000
C1927       C  0.29064898  0.24876917  0.13003654    -0.20000
C1928       C  0.30173303  0.24998758  0.12045372    -0.10800
C1929       C  0.30569540  0.24795153  0.14748892    -0.15000
C1930       C  0.32232568  0.25830495  0.15447691    -0.28900
C1931       C  0.35324618  0.25142415  0.10786162    -0.03100
C1932       C  0.33472060  0.26104556  0.10089966    -0.39700
H1933       H  0.39759950  0.25353811  0.12356170     0.13100
H1934       H  0.37822065  0.25219486  0.14029273     0.12700
H1935       H  0.26077331  0.24704908  0.13175282     0.12200
H1936       H  0.28017071  0.24895538  0.11497982     0.12400
H1937       H  0.28198886  0.23836047  0.14918278     0.15200
H1938       H  0.34394698  0.26899713  0.15260493     0.13900
H1939       H  0.37928960  0.24361078  0.10617112     0.11600
H1940       H  0.31040204  0.27008824  0.10273491     0.13600
C1941       C  0.57189673  0.60574667  0.06003541     0.19700
C1942       C  0.60690892  0.61556842  0.06030490    -0.18400
C1943       C  0.60820941  0.63596757  0.06017449    -0.10700
C1944       C  0.57440865  0.64690987  0.05960133     0.22000
C1945       C  0.53945091  0.63707304  0.05909663    -0.20000
C1946       C  0.53811137  0.61667618  0.05939720    -0.10800
C1947       C  0.57487982  0.66853839  0.05917796    -0.15000
C1948       C  0.60076388  0.67929650  0.06386170    -0.28900
C1949       C  0.57159418  0.58412760  0.05987250    -0.03100
C1950       C  0.54345357  0.57341015  0.06373897    -0.39700
H1951       H  0.63331107  0.60742290  0.06063566     0.13100
H1952       H  0.63568342  0.64312003  0.06029614     0.12700
H1953       H  0.51310805  0.64520815  0.05851472     0.12200
H1954       H  0.51073592  0.60950151  0.05888237     0.12400
H1955       H  0.55213938  0.67581384  0.05531082     0.15200
H1956       H  0.62175628  0.67217508  0.06835286     0.13900
H1957       H  0.59593910  0.57680978  0.05670706     0.11600
H1958       H  0.52037339  0.58051098  0.06753173     0.13600
C1959       C  0.47357932  0.39589322  0.05937680     0.19700
C1960       C  0.43431353  0.39201750  0.05930265    -0.18400
C1961       C  0.42067379  0.37286379  0.05984252    -0.10700
C1962       C  0.44615741  0.35708031  0.06040019     0.22000
C1963       C  0.48545544  0.36093695  0.06041970    -0.20000
C1964       C  0.49910939  0.38013151  0.05996436    -0.10800
C1965       C  0.43299255  0.33643517  0.06044185    -0.15000
C1966       C  0.39834295  0.33063134  0.06347293    -0.28900
C1967       C  0.48642201  0.41647669  0.05836331    -0.03100
C1968       C  0.52047411  0.42331077  0.06128163    -0.39700
H1969       H  0.41403741  0.40388587  0.05875321     0.13100
H1970       H  0.39025795  0.37050592  0.05953687     0.12700
H1971       H  0.50570384  0.34902264  0.06072714     0.12200
H1972       H  0.52954828  0.38248695  0.05980582     0.12400
H1973       H  0.45335123  0.32543370  0.05817700     0.15200
H1974       H  0.37843828  0.34111860  0.06641148     0.13900
H1975       H  0.46577811  0.42676893  0.05551490     0.11600
H1976       H  0.54066091  0.41373644  0.06480373     0.13600
C1977       C  0.08443126  0.64757473  0.06942962     0.19700
C1978       C  0.11187488  0.63290078  0.07067373    -0.18400
C1979       C  0.10159350  0.61314065  0.07028437    -0.10700
C1980       C  0.06340144  0.60767005  0.06887190     0.22000
C1981       C  0.03571946  0.62232797  0.06803197    -0.20000
C1982       C  0.04610627  0.64207829  0.06820900    -0.10800
C1983       C  0.05177621  0.58679636  0.06843002    -0.15000
C1984       C  0.07276906  0.57335489  0.06384724    -0.28900
C1985       C  0.09624736  0.66847016  0.06965343    -0.03100
C1986       C  0.07919856  0.68215533  0.06424943    -0.39700
H1987       H  0.14144698  0.63674297  0.07178726     0.13100
H1988       H  0.12343278  0.60214481  0.07120564     0.12700
H1989       H  0.00605957  0.61847461  0.06708070     0.12200
H1990       H  0.02403585  0.65301860  0.06752924     0.12400
H1991       H  0.02439305  0.58266118  0.07141683     0.15200
H1992       H  0.09854708  0.57790573  0.06018439     0.13900
H1993       H  0.12029194  0.67251647  0.07408761     0.11600
H1994       H  0.05672028  0.67782602  0.05938993     0.13600
C1995       C  0.83275592  0.49234896  0.06740458     0.19700
C1996       C  0.80949889  0.50899405  0.06792933    -0.18400
C1997       C  0.76981552  0.50704524  0.06817323    -0.10700
C1998       C  0.75273827  0.48843093  0.06795753     0.22000
C1999       C  0.77607862  0.47184928  0.06797301    -0.20000
C2000       C  0.81566762  0.47379453  0.06755114    -0.10800
C2001       C  0.71074933  0.48598050  0.06750595    -0.15000
C2002       C  0.68879550  0.49814475  0.06237324    -0.28900
C2003       C  0.87432752  0.49367433  0.06567735    -0.03100
C2004       C  0.89691280  0.50849336  0.06851586    -0.39700
H2005       H  0.82175548  0.52349116  0.06772620     0.13100
H2006       H  0.75250121  0.52010968  0.06841412     0.12700
H2007       H  0.76361469  0.45737782  0.06790512     0.12200
H2008       H  0.83302252  0.46074593  0.06714154     0.12400
H2009       H  0.69800016  0.47345089  0.07103773     0.15200
H2010       H  0.70204450  0.51000165  0.05842915     0.13900
H2011       H  0.88722716  0.48142540  0.06196670     0.11600
H2012       H  0.88586888  0.52010272  0.07297432     0.13600
C2013       C  0.32863387  0.49348686  0.05369559     0.19700
C2014       C  0.30670643  0.47666754  0.05206910    -0.18400
C2015       C  0.26687152  0.47770188  0.05180551    -0.10700
C2016       C  0.24824589  0.49571369  0.05300365     0.22000
C2017       C  0.27030349  0.51262534  0.05424516    -0.20000
C2018       C  0.31001844  0.51154359  0.05465184    -0.10800
C2019       C  0.20607924  0.49765583  0.05288640    -0.15000
C2020       C  0.18177672  0.48332820  0.05546986    -0.28900
C2021       C  0.37081765  0.49186778  0.05412686    -0.03100
C2022       C  0.39247193  0.50344051  0.05966667    -0.39700
H2023       H  0.32043917  0.46263911  0.05113949     0.13100
H2024       H  0.25086791  0.46445890  0.05054974     0.12700
H2025       H  0.25670949  0.52672939  0.05503443     0.12200
H2026       H  0.32608316  0.52488724  0.05559448     0.12400
H2027       H  0.19470588  0.51207634  0.05133000     0.15200
H2028       H  0.19252704  0.46917113  0.05767788     0.13900
H2029       H  0.38421751  0.48014863  0.05014711     0.11600
H2030       H  0.37906592  0.51425870  0.06419778     0.13600
C2031       C  0.93306312  0.35968014  0.06409913     0.19700
C2032       C  0.91521027  0.37795700  0.06459214    -0.18400
C2033       C  0.93659767  0.39518464  0.06396518    -0.10700
C2034       C  0.97651194  0.39448664  0.06305328     0.22000
C2035       C  0.99450507  0.37621201  0.06286682    -0.20000
C2036       C  0.97301796  0.35896741  0.06326812    -0.10800
C2037       C  0.99971430  0.41268998  0.06269110    -0.15000
C2038       C  0.98767937  0.42858867  0.05794189    -0.28900
C2039       C  0.90976936  0.34154769  0.06483618    -0.03100
C2040       C  0.91796241  0.32555138  0.05970741    -0.39700
H2041       H  0.88459198  0.37889766  0.06537728     0.13100
H2042       H  0.92194352  0.40906012  0.06440479     0.12700
H2043       H  0.02520788  0.37528741  0.06232115     0.12200
H2044       H  0.98774120  0.34508367  0.06313423     0.12400
H2045       H  0.02699705  0.41294706  0.06632067     0.15200
H2046       H  0.96136781  0.42771472  0.05390206     0.13900
H2047       H  0.88519223  0.34151000  0.06952836     0.11600
H2048       H  0.94134675  0.32616942  0.05465119     0.13600
C2049       C  0.56277063  0.64131864  0.19007232     0.19700
C2050       C  0.59916546  0.63383673  0.19198317    -0.18400
C2051       C  0.60604148  0.61374134  0.19165744    -0.10700
C2052       C  0.57638183  0.60065602  0.18959053     0.22000
C2053       C  0.53967447  0.60804720  0.18798101    -0.20000
C2054       C  0.53293432  0.62821126  0.18811880    -0.10800
C2055       C  0.58292743  0.57924816  0.18938412    -0.15000
C2056       C  0.61500076  0.57137335  0.18582891    -0.28900
C2057       C  0.55684315  0.66277847  0.19052516    -0.03100
C2058       C  0.53076345  0.67236610  0.18527642    -0.39700
H2059       H  0.62246916  0.64360666  0.19365308     0.13100
H2060       H  0.63441198  0.60842963  0.19319035     0.12700
H2061       H  0.51627406  0.59820010  0.18651682     0.12200
H2062       H  0.50429418  0.63344917  0.18688913     0.12400
H2063       H  0.56001028  0.56972270  0.19173745     0.15200
H2064       H  0.63652282  0.58077858  0.18268090     0.13900
H2065       H  0.57618983  0.67111307  0.19497536     0.11600
H2066       H  0.51291035  0.66441987  0.18031446     0.13600
C2067       C  0.74504857  0.35658679  0.18579657     0.19700
C2068       C  0.70616595  0.36114683  0.18648943    -0.18400
C2069       C  0.69355910  0.38040837  0.18572408    -0.10700
C2070       C  0.71970037  0.39565385  0.18430440     0.22000
C2071       C  0.75863208  0.39113339  0.18354644    -0.20000
C2072       C  0.77126470  0.37176403  0.18422332    -0.10800
C2073       C  0.70762181  0.41643867  0.18441614    -0.15000
C2074       C  0.67241338  0.42259004  0.18202466    -0.28900
C2075       C  0.75657112  0.33598398  0.18737340    -0.03100
C2076       C  0.78983137  0.32785144  0.18464302    -0.39700
H2077       H  0.68538822  0.34974902  0.18779055     0.13100
H2078       H  0.66351482  0.38333170  0.18662334     0.12700
H2079       H  0.77938463  0.40267138  0.18257070     0.12200
H2080       H  0.80148729  0.36886648  0.18383809     0.12400
H2081       H  0.72882394  0.42716566  0.18650801     0.15200
H2082       H  0.65163604  0.41242417  0.17919107     0.13900
H2083       H  0.73524345  0.32668651  0.19069251     0.11600
H2084       H  0.81099567  0.33626950  0.18078755     0.13600
C2085       C  0.58044184  0.48828616  0.11289765     0.19700
C2086       C  0.61700844  0.49066820  0.11672990    -0.18400
C2087       C  0.62246732  0.49098700  0.12657378    -0.10700
C2088       C  0.59141243  0.48857955  0.13277873     0.22000
C2089       C  0.55498755  0.48566183  0.12894385    -0.20000
C2090       C  0.54942595  0.48569095  0.11909465    -0.10800
C2091       C  0.59642854  0.48814328  0.14324772    -0.15000
C2092       C  0.62305760  0.49875175  0.14777663    -0.28900
C2093       C  0.57587073  0.48788047  0.10242333    -0.03100
C2094       C  0.54464179  0.49459457  0.09794374    -0.39700
H2095       H  0.64139971  0.49240500  0.11208569     0.13100
H2096       H  0.65108040  0.49266729  0.12930115     0.12700
H2097       H  0.53074574  0.48345856  0.13358944     0.12200
H2098       H  0.52104206  0.48326501  0.11635140     0.12400
H2099       H  0.57653719  0.47941016  0.14738311     0.15200
H2100       H  0.64119330  0.50867372  0.14378899     0.13900
H2101       H  0.60007833  0.48302994  0.09822945     0.11600
H2102       H  0.52149423  0.50099442  0.10199618     0.13600
C2103       C  0.07400513  0.60137846  0.18943118     0.19700
C2104       C  0.04438318  0.61024624  0.18431915    -0.18400
C2105       C  0.03545036  0.62992276  0.18567898    -0.10700
C2106       C  0.05625228  0.64134008  0.19217941     0.22000
C2107       C  0.08498508  0.63229843  0.19754577    -0.20000
C2108       C  0.09380061  0.61256542  0.19621818    -0.10800
C2109       C  0.04917312  0.66262028  0.19354384    -0.15000
C2110       C  0.02980474  0.67373562  0.18728925    -0.28900
C2111       C  0.08241594  0.58040522  0.18758589    -0.03100
C2112       C  0.11425345  0.57122137  0.19048781    -0.39700
H2113       H  0.02811052  0.60192210  0.17919270     0.13100
H2114       H  0.01204348  0.63591430  0.18164355     0.12700
H2115       H  0.10102101  0.64059820  0.20272689     0.12200
H2116       H  0.11588731  0.60626554  0.20059532     0.12400
H2117       H  0.06209450  0.66959465  0.19968079     0.15200
H2118       H  0.01782248  0.66735852  0.18091944     0.13900
H2119       H  0.06155649  0.57220861  0.18351424     0.11600
H2120       H  0.13606386  0.57899159  0.19439116     0.13600
C2121       C  0.92969847  0.49481186  0.18291991     0.19700
C2122       C  0.90858923  0.50912503  0.17809181    -0.18400
C2123       C  0.86902174  0.50966627  0.17877406    -0.10700
C2124       C  0.84956273  0.49580094  0.18433897     0.22000
C2125       C  0.87068940  0.48147813  0.18918090    -0.20000
C2126       C  0.91032944  0.48096397  0.18851085    -0.10800
C2127       C  0.80755238  0.49561177  0.18540280    -0.15000
C2128       C  0.78326095  0.50742525  0.18070371    -0.28900
C2129       C  0.97174387  0.49575932  0.18225316    -0.03100
C2130       C  0.99604087  0.48204035  0.18548752    -0.39700
H2131       H  0.92282450  0.52009142  0.17380599     0.13100
H2132       H  0.85428490  0.52111056  0.17498563     0.12700
H2133       H  0.85647222  0.47066873  0.19356311     0.12200
H2134       H  0.92537783  0.46993271  0.19252153     0.12400
H2135       H  0.79591562  0.48470034  0.19022455     0.15200
H2136       H  0.79321659  0.51827673  0.17567516     0.13900
H2137       H  0.98337219  0.50889211  0.17900263     0.11600
H2138       H  0.98591169  0.46856059  0.18864934     0.13600
C2139       C  0.34964514  0.49752683  0.18274462     0.19700
C2140       C  0.37017482  0.47998800  0.18288223    -0.18400
C2141       C  0.40891417  0.47989737  0.18511387    -0.10700
C2142       C  0.42812758  0.49749253  0.18704403     0.22000
C2143       C  0.40751608  0.51504603  0.18690904    -0.20000
C2144       C  0.36869348  0.51511008  0.18474028    -0.10800
C2145       C  0.46966133  0.49820016  0.18898680    -0.15000
C2146       C  0.49408014  0.48467461  0.18570887    -0.28900
C2147       C  0.30827008  0.49690489  0.18072867    -0.03100
C2148       C  0.28362651  0.50903042  0.18499685    -0.39700
H2149       H  0.35599070  0.46625492  0.18145383     0.13100
H2150       H  0.42345677  0.46599658  0.18541693     0.12700
H2151       H  0.42164246  0.52879779  0.18833016     0.12200
H2152       H  0.35379413  0.52893552  0.18451511     0.12400
H2153       H  0.48090107  0.51120680  0.19240006     0.15200
H2154       H  0.48369257  0.47233291  0.18164709     0.13900
H2155       H  0.29743350  0.48489741  0.17647307     0.11600
H2156       H  0.29398872  0.51993609  0.18995596     0.13600
C2157       C  0.23888745  0.35623508  0.18757368     0.19700
C2158       C  0.22866696  0.36530836  0.17897566    -0.18400
C2159       C  0.20857007  0.38299170  0.17892670    -0.10700
C2160       C  0.19858992  0.39219017  0.18752188     0.22000
C2161       C  0.20851851  0.38303680  0.19611438    -0.20000
C2162       C  0.22867218  0.36539054  0.19616478    -0.10800
C2163       C  0.17849494  0.41139640  0.18785748    -0.15000
C2164       C  0.18070992  0.42480448  0.18084737    -0.28900
C2165       C  0.25985947  0.33725524  0.18727910    -0.03100
C2166       C  0.25882004  0.32410649  0.19441604    -0.39700
H2167       H  0.23588668  0.35856410  0.17225290     0.13100
H2168       H  0.20062281  0.38924854  0.17214471     0.12700
H2169       H  0.20133706  0.38978588  0.20283902     0.12200
H2170       H  0.23669912  0.35922086  0.20295744     0.12400
H2171       H  0.16421505  0.41531158  0.19444021     0.15200
H2172       H  0.19712346  0.42167044  0.17449576     0.13900
H2173       H  0.27393374  0.33327718  0.18067745     0.11600
H2174       H  0.24226212  0.32715937  0.20075139     0.13600
C2175       C  0.11795995  0.49873211  0.13142787     0.19700
C2176       C  0.11075844  0.48191711  0.12603955    -0.18400
C2177       C  0.09597534  0.48332070  0.11680929    -0.10700
C2178       C  0.08876728  0.50170003  0.11263916     0.22000
C2179       C  0.09645733  0.51853150  0.11800662    -0.20000
C2180       C  0.11098985  0.51711037  0.12726710    -0.10800
C2181       C  0.07297095  0.50397000  0.10281450    -0.15000
C2182       C  0.07479461  0.48992930  0.09612241    -0.28900
C2183       C  0.13168883  0.49655112  0.14142092    -0.03100
C2184       C  0.12158978  0.50905236  0.14834604    -0.39700
H2185       H  0.11564322  0.46758570  0.12908246     0.13100
H2186       H  0.08961015  0.46992206  0.11309331     0.12700
H2187       H  0.09136469  0.53287827  0.11500332     0.12200
H2188       H  0.11695579  0.53041969  0.13112200     0.12400
H2189       H  0.06114676  0.51809339  0.10087522     0.15200
H2190       H  0.08847614  0.47612198  0.09772201     0.13900
H2191       H  0.14692702  0.48329772  0.14332550     0.11600
H2192       H  0.10339367  0.52137443  0.14661735     0.13600
C2193       C  0.82768749  0.00634883  0.81439612     0.19700
C2194       C  0.84757051  0.98864753  0.81519848    -0.18400
C2195       C  0.88670086  0.98841369  0.81691704    -0.10700
C2196       C  0.90715556  0.00598395  0.81771952     0.22000
C2197       C  0.88722716  0.02373971  0.81703970    -0.20000
C2198       C  0.84789206  0.02397061  0.81536103    -0.10800
C2199       C  0.94917571  0.00633659  0.81912257    -0.15000
C2200       C  0.97227423  0.99168727  0.81636739    -0.28900
C2201       C  0.78619688  0.00548529  0.81238223    -0.03100
C2202       C  0.76108348  0.01980595  0.81434624    -0.39700
H2203       H  0.83266724  0.97485867  0.81455592     0.13100
H2204       H  0.90061443  0.97441659  0.81768344     0.12700
H2205       H  0.90228161  0.03749219  0.81762622     0.12200
H2206       H  0.83371646  0.03791060  0.81463134     0.12400
H2207       H  0.96183556  0.01979271  0.82171800     0.15200
H2208       H  0.96053533  0.97881456  0.81298031     0.13900
H2209       H  0.77542673  0.99166624  0.80970787     0.11600
H2210       H  0.77048552  0.03338355  0.81753384     0.13600
C2211       C  0.32613027  0.00182677  0.80702700     0.19700
C2212       C  0.34712461  0.98534815  0.80987181    -0.18400
C2213       C  0.38683721  0.98543733  0.80962848    -0.10700
C2214       C  0.40659136  0.00212845  0.80656187     0.22000
C2215       C  0.38570787  0.01845402  0.80347115    -0.20000
C2216       C  0.34586090  0.01840118  0.80374637    -0.10800
C2217       C  0.44880394  0.00292633  0.80631712    -0.15000
C2218       C  0.47152409  0.99201523  0.81195128    -0.28900
C2219       C  0.28408020  0.00112689  0.80814467    -0.03100
C2220       C  0.25899136  0.01451674  0.80487998    -0.39700
H2221       H  0.33271209  0.97232107  0.81237635     0.13100
H2222       H  0.40183154  0.97235382  0.81176929     0.12700
H2223       H  0.40031813  0.03145364  0.80100781     0.12200
H2224       H  0.33094409  0.03147005  0.80157811     0.12400
H2225       H  0.46163397  0.01372289  0.80162679     0.15200
H2226       H  0.45941258  0.98208874  0.81716252     0.13900
H2227       H  0.27311277  0.98859913  0.81204264     0.11600
H2228       H  0.26821231  0.02688842  0.80064387     0.13600
C2229       C  0.73699620  0.01208546  0.00905237     0.19700
C2230       C  0.76417552  0.01769566  0.00228012    -0.18400
C2231       C  0.75685790  0.01556286  0.99256353    -0.10700
C2232       C  0.72166390  0.00807899  0.98938120     0.22000
C2233       C  0.69423011  0.00285518  0.99616999    -0.20000
C2234       C  0.70159053  0.00496147  0.00587985    -0.10800
C2235       C  0.71288599  0.00492629  0.97912488    -0.15000
C2236       C  0.73236150  0.01361741  0.97206862    -0.28900
C2237       C  0.74657983  0.01365282  0.01933070    -0.03100
C2238       C  0.73018490  0.00224242  0.02595591    -0.39700
H2239       H  0.79160520  0.02326174  0.00452061     0.13100
H2240       H  0.77939564  0.01932148  0.98766304     0.12700
H2241       H  0.66688033  0.99715373  0.99395127     0.12200
H2242       H  0.67927129  0.00112528  0.01084150     0.12400
H2243       H  0.68942222  0.99526648  0.97733243     0.15200
H2244       H  0.75494310  0.02385837  0.97369120     0.13900
H2245       H  0.76894925  0.02372366  0.02142860     0.11600
H2246       H  0.70929487  0.99140596  0.02386724     0.13600
C2247       C  0.66783983  0.01060404  0.88390054     0.19700
C2248       C  0.63120802  0.01267247  0.88003868    -0.18400
C2249       C  0.62584529  0.01368799  0.87018810    -0.10700
C2250       C  0.65719406  0.01305880  0.86398112     0.22000
C2251       C  0.69394166  0.01147526  0.86784063    -0.20000
C2252       C  0.69925252  0.01002733  0.87769890    -0.10800
C2253       C  0.65235011  0.01454984  0.85349552    -0.15000
C2254       C  0.62292337  0.00625590  0.84887914    -0.28900
C2255       C  0.67236276  0.01044256  0.89441595    -0.03100
C2256       C  0.70025079  0.00075325  0.89901866    -0.39700
H2257       H  0.60661286  0.01347935  0.88467140     0.13100
H2258       H  0.59724467  0.01539950  0.86744886     0.12700
H2259       H  0.71857394  0.01120938  0.86320548     0.12200
H2260       H  0.72794261  0.00900047  0.88045566     0.12400
H2261       H  0.67493653  0.02145552  0.84940753     0.15200
H2262       H  0.60213989  0.99775764  0.85284124     0.13900
H2263       H  0.65095177  0.01811465  0.89855288     0.11600
H2264       H  0.72021558  0.99181275  0.89505419     0.13600
C2265       C  0.23523299  0.00747286  0.00921440     0.19700
C2266       C  0.22014373  0.99239833  0.00363024    -0.18400
C2267       C  0.21674582  0.99460173  0.99379226    -0.10700
C2268       C  0.22796341  0.01208825  0.98933354     0.22000
C2269       C  0.24209608  0.02738485  0.99492898    -0.20000
C2270       C  0.24601861  0.02507710  0.00477838    -0.10800
C2271       C  0.22441326  0.01472963  0.97889438    -0.15000
C2272       C  0.23073166  0.99993711  0.97284457    -0.28900
C2273       C  0.23718571  0.00464317  0.01966991    -0.03100
C2274       C  0.26217930  0.01388628  0.02535694    -0.39700
H2275       H  0.21100690  0.97883403  0.00689535     0.13100
H2276       H  0.20467936  0.98273756  0.98970931     0.12700
H2277       H  0.25041741  0.04107560  0.99165730     0.12200
H2278       H  0.25662634  0.03722902  0.00890206     0.12400
H2279       H  0.21837919  0.02923513  0.97613024     0.15200
H2280       H  0.23983841  0.98585886  0.97560361     0.13900
H2281       H  0.21779184  0.99401353  0.02277055     0.11600
H2282       H  0.28330102  0.02369401  0.02235304     0.13600
C2283       C  0.92599105  0.00697837  0.93699875     0.19700
C2284       C  0.94669216  0.02327056  0.94022577    -0.18400
C2285       C  0.98656740  0.02307635  0.94040113    -0.10700
C2286       C  0.00655822  0.00644224  0.93738198     0.22000
C2287       C  0.98581753  0.99015359  0.93421755    -0.20000
C2288       C  0.94610252  0.99033141  0.93405920    -0.10800
C2289       C  0.04877168  0.00525256  0.93706470    -0.15000
C2290       C  0.07366870  0.01789291  0.94104999    -0.28900
C2291       C  0.88366182  0.00783476  0.93712446    -0.03100
C2292       C  0.86022666  0.99500621  0.93275408    -0.39700
H2293       H  0.93192892  0.03628119  0.94257660     0.13100
H2294       H  0.00137513  0.03600889  0.94277935     0.12700
H2295       H  0.00045317  0.97709572  0.93187391     0.12200
H2296       H  0.93157169  0.97727906  0.93174612     0.12400
H2297       H  0.06006981  0.99265574  0.93332036     0.15200
H2298       H  0.06394455  0.03046130  0.94504055     0.13900
H2299       H  0.87113600  0.01998098  0.94097773     0.11600
H2300       H  0.87142191  0.98310391  0.92853488     0.13600
C2301       C  0.42420884  0.99323116  0.93867545     0.19700
C2302       C  0.44395594  0.00777720  0.94365668    -0.18400
C2303       C  0.48372305  0.00845593  0.94344448    -0.10700
C2304       C  0.50439954  0.99419464  0.93848116     0.22000
C2305       C  0.48466220  0.97944404  0.93362869    -0.20000
C2306       C  0.44481772  0.97913292  0.93358892    -0.10800
C2307       C  0.54651901  0.99390448  0.93869357    -0.15000
C2308       C  0.56752769  0.01018424  0.93768329    -0.28900
C2309       C  0.38221354  0.99255016  0.93927923    -0.03100
C2310       C  0.35992150  0.98964278  0.93165004    -0.39700
H2311       H  0.42852953  0.01867669  0.94768440     0.13100
H2312       H  0.49833707  0.01976719  0.94738305     0.12700
H2313       H  0.50013304  0.96821519  0.92983471     0.12200
H2314       H  0.43014443  0.96759221  0.92982487     0.12400
H2315       H  0.56065011  0.97980553  0.93911750     0.15200
H2316       H  0.55372535  0.02407013  0.93622914     0.13900
H2317       H  0.36915616  0.99630588  0.94604508     0.11600
H2318       H  0.37255209  0.98809566  0.92463884     0.13600
C2319       C  0.14902182  0.01423528  0.86543731     0.19700
C2320       C  0.12439882  0.01238610  0.87322640    -0.18400
C2321       C  0.13881854  0.01202748  0.88249292    -0.10700
C2322       C  0.17825778  0.01369522  0.88413881     0.22000
C2323       C  0.20262957  0.01655871  0.87637518    -0.20000
C2324       C  0.18825455  0.01676657  0.86711231    -0.10800
C2325       C  0.19457048  0.01285693  0.89387109    -0.15000
C2326       C  0.17858576  0.00210549  0.90079572    -0.28900
C2327       C  0.13329116  0.01342822  0.85564389    -0.03100
C2328       C  0.15337646  0.00571150  0.84845715    -0.39700
H2329       H  0.09403433  0.01081578  0.87212822     0.13100
H2330       H  0.11898637  0.01060239  0.88834365     0.12700
H2331       H  0.23295990  0.01830445  0.87747121     0.12200
H2332       H  0.20791359  0.01901452  0.86128391     0.12400
H2333       H  0.22076681  0.02077546  0.89528267     0.15200
H2334       H  0.15350084  0.99340286  0.89925326     0.13900
H2335       H  0.10434040  0.01841463  0.85442099     0.11600
H2336       H  0.18143329  0.99969098  0.84984770     0.13600
C2337       C  0.02545200  0.14590561  0.81091312     0.19700
C2338       C  0.02933295  0.13658542  0.80206766    -0.18400
C2339       C  0.04766371  0.11849191  0.80131123    -0.10700
C2340       C  0.06229510  0.10908138  0.80939234     0.22000
C2341       C  0.05874903  0.11843328  0.81826276    -0.20000
C2342       C  0.04034005  0.13650368  0.81902983    -0.10800
C2343       C  0.08038274  0.08945883  0.80832584    -0.15000
C2344       C  0.08157087  0.07635226  0.81546309    -0.28900
C2345       C  0.00702061  0.16561044  0.81119023    -0.03100
C2346       C  0.00722288  0.17758405  0.81879745    -0.39700
H2347       H  0.01838502  0.14341161  0.79567245     0.13100
H2348       H  0.05001513  0.11170944  0.79438570     0.12700
H2349       H  0.07050318  0.11201100  0.82464942     0.12200
H2350       H  0.03807050  0.14287150  0.82601948     0.12400
H2351       H  0.08990675  0.08506068  0.80129616     0.15200
H2352       H  0.06937273  0.08003851  0.82231362     0.13900
H2353       H  0.99522700  0.17112829  0.80456323     0.11600
H2354       H  0.02012486  0.17299839  0.82542435     0.13600
C2355       C  0.76716923  0.25408756  0.81353878     0.19700
C2356       C  0.74530027  0.26737203  0.81886362    -0.18400
C2357       C  0.70548608  0.26757662  0.81825134    -0.10700
C2358       C  0.68637349  0.25439642  0.81226863     0.22000
C2359       C  0.70822938  0.24118366  0.80690596    -0.20000
C2360       C  0.74803449  0.24096586  0.80752205    -0.10800
C2361       C  0.64405371  0.25400439  0.81118004    -0.15000
C2362       C  0.61872449  0.26333584  0.81683283    -0.28900
C2363       C  0.80956626  0.25487780  0.81443305    -0.03100
C2364       C  0.83459936  0.24262639  0.81019933    -0.39700
H2365       H  0.75912135  0.27777189  0.82351626     0.13100
H2366       H  0.69010891  0.27825909  0.82238572     0.12700
H2367       H  0.69440485  0.23091210  0.80218667     0.12200
H2368       H  0.76335115  0.23057991  0.80320619     0.12400
H2369       H  0.63309467  0.24494071  0.80546920     0.15200
H2370       H  0.62824679  0.27203445  0.82279962     0.13900
H2371       H  0.82083958  0.26640307  0.81892389     0.11600
H2372       H  0.82487058  0.23075583  0.80574727     0.13600
C2373       C  0.26686823  0.23292578  0.81787502     0.19700
C2374       C  0.25076394  0.22744933  0.82664135    -0.18400
C2375       C  0.21198654  0.23043285  0.82846351    -0.10700
C2376       C  0.18855394  0.23918322  0.82160028     0.22000
C2377       C  0.20432494  0.24405299  0.81270616    -0.20000
C2378       C  0.24287955  0.24090123  0.81084722    -0.10800
C2379       C  0.14726474  0.24183831  0.82355573    -0.15000
C2380       C  0.12665136  0.25594838  0.81931817    -0.28900
C2381       C  0.30875848  0.23065900  0.81649639    -0.03100
C2382       C  0.32851963  0.24000747  0.80964696    -0.39700
H2383       H  0.26836129  0.22108593  0.83216037     0.13100
H2384       H  0.20036549  0.22613015  0.83529087     0.12700
H2385       H  0.18676849  0.24987334  0.80705119     0.12200
H2386       H  0.25332078  0.24458129  0.80384482     0.12400
H2387       H  0.13329297  0.23141160  0.82823639     0.15200
H2388       H  0.14078461  0.26670911  0.81486322     0.13900
H2389       H  0.32440434  0.22255562  0.82187993     0.11600
H2390       H  0.31405035  0.24920105  0.80452144     0.13600
C2391       C  0.55977311  0.10928972  0.81514073     0.19700
C2392       C  0.58051053  0.12672996  0.81552209    -0.18400
C2393       C  0.56177389  0.14471351  0.81514252    -0.10700
C2394       C  0.52179882  0.14555780  0.81456342     0.22000
C2395       C  0.50094203  0.12811560  0.81458334    -0.20000
C2396       C  0.51974699  0.11010592  0.81475814    -0.10800
C2397       C  0.50162870  0.16456129  0.81421424    -0.15000
C2398       C  0.51573922  0.17966142  0.80922745    -0.28900
C2399       C  0.58027651  0.09038097  0.81533288    -0.03100
C2400       C  0.56902623  0.07534804  0.80992529    -0.39700
H2401       H  0.61128825  0.12642454  0.81596201     0.13100
H2402       H  0.57855136  0.15796356  0.81543978     0.12700
H2403       H  0.47013474  0.12843910  0.81430931     0.12200
H2404       H  0.50299397  0.09683109  0.81472130     0.12400
H2405       H  0.47499586  0.16610456  0.81807126     0.15200
H2406       H  0.54128310  0.17757104  0.80498563     0.13900
H2407       H  0.60559895  0.08904151  0.81971826     0.11600
H2408       H  0.54514587  0.07729297  0.80510238     0.13600
C2409       C  0.86511429  0.25064699  0.01174045     0.19700
C2410       C  0.88686142  0.26269188  0.00577653    -0.18400
C2411       C  0.88523216  0.26062026  0.99593037    -0.10700
C2412       C  0.86219284  0.24613404  0.99179306     0.22000
C2413       C  0.83977774  0.23431209  0.99773316    -0.20000
C2414       C  0.84133765  0.23641991  0.00762347    -0.10800
C2415       C  0.86038631  0.24338060  0.98132774    -0.15000
C2416       C  0.88901435  0.24868504  0.97551819    -0.28900
C2417       C  0.86957896  0.25300834  0.02216307    -0.03100
C2418       C  0.84476079  0.24622107  0.02865213    -0.39700
H2419       H  0.90518937  0.27384062  0.00875181     0.13100
H2420       H  0.90174901  0.27060665  0.99162079     0.12700
H2421       H  0.82156782  0.22316329  0.99471850     0.12200
H2422       H  0.82463089  0.22656886  0.01195659     0.12400
H2423       H  0.83503179  0.23667147  0.97834917     0.15200
H2424       H  0.91516450  0.25458204  0.97843656     0.13900
H2425       H  0.89444393  0.26102057  0.02459452     0.11600
H2426       H  0.81889007  0.23884458  0.02647702     0.13600
C2427       C  0.77675705  0.10739058  0.93880601     0.19700
C2428       C  0.81418423  0.11163516  0.94161382    -0.18400
C2429       C  0.82680932  0.13088059  0.94226736    -0.10700
C2430       C  0.80211496  0.14642208  0.94017844     0.22000
C2431       C  0.76442427  0.14226632  0.93750885    -0.20000
C2432       C  0.75182143  0.12290230  0.93676238    -0.10800
C2433       C  0.81465178  0.16703442  0.94105489    -0.15000
C2434       C  0.85089459  0.17269809  0.93957950    -0.28900
C2435       C  0.76506736  0.08658998  0.93862355    -0.03100
C2436       C  0.73512793  0.07921424  0.93380931    -0.39700
H2437       H  0.83382291  0.09996440  0.94335718     0.13100
H2438       H  0.85565507  0.13351865  0.94463235     0.12700
H2439       H  0.74474160  0.15403607  0.93597960     0.12200
H2440       H  0.72252461  0.12019960  0.93480660     0.12400
H2441       H  0.79304059  0.17802542  0.94244331     0.15200
H2442       H  0.87211570  0.16218873  0.93729194     0.13900
H2443       H  0.78345329  0.07659112  0.94249961     0.11600
H2444       H  0.71675529  0.08858476  0.92960506     0.13600
C2445       C  0.92066727  0.25578889  0.88703310     0.19700
C2446       C  0.91407250  0.27112470  0.88062402    -0.18400
C2447       C  0.92868927  0.27040987  0.87138105    -0.10700
C2448       C  0.95020436  0.25420272  0.86833447     0.22000
C2449       C  0.95787305  0.23920595  0.87484536    -0.20000
C2450       C  0.94342288  0.23996110  0.88408580    -0.10800
C2451       C  0.96487768  0.25228107  0.85845818    -0.15000
C2452       C  0.94900095  0.26161589  0.85105881    -0.28900
C2453       C  0.90553130  0.25732158  0.89688308    -0.03100
C2454       C  0.90154277  0.24175396  0.90262288    -0.39700
H2455       H  0.89754921  0.28371796  0.88277764     0.13100
H2456       H  0.92337830  0.28270904  0.86673629     0.12700
H2457       H  0.97491507  0.22674929  0.87275413     0.12200
H2458       H  0.95092854  0.22825579  0.88889792     0.12400
H2459       H  0.98754687  0.24183038  0.85714166     0.15200
H2460       H  0.92496522  0.27127368  0.85217254     0.13900
H2461       H  0.89875419  0.27176148  0.89959341     0.11600
H2462       H  0.90751788  0.22719294  0.90001040     0.13600
C2463       C  0.36518001  0.24525123  0.01067158     0.19700
C2464       C  0.33666644  0.25043027  0.00414294    -0.18400
C2465       C  0.34277523  0.24865833  0.99432463    -0.10700
C2466       C  0.37742782  0.24128017  0.99078794     0.22000
C2467       C  0.40558759  0.23562978  0.99733161    -0.20000
C2468       C  0.39975491  0.23778084  0.00715427    -0.10800
C2469       C  0.38431431  0.23874041  0.98036249    -0.15000
C2470       C  0.36927325  0.25084618  0.97379249    -0.28900
C2471       C  0.35742349  0.24687151  0.02108832    -0.03100
C2472       C  0.38439139  0.25181338  0.02746550    -0.39700
H2473       H  0.30958140  0.25595012  0.00665330     0.13100
H2474       H  0.31995036  0.25263770  0.98953308     0.12700
H2475       H  0.43230897  0.22965165  0.99482967     0.12200
H2476       H  0.42196436  0.23315884  0.01199350     0.12400
H2477       H  0.40335287  0.22715612  0.97808592     0.15200
H2478       H  0.35248283  0.26324557  0.97613950     0.13900
H2479       H  0.32832323  0.24477821  0.02350978     0.11600
H2480       H  0.41281381  0.25540114  0.02496637     0.13600
C2481       C  0.67426052  0.24457880  0.94062294     0.19700
C2482       C  0.65372004  0.22863880  0.94431305    -0.18400
C2483       C  0.61397402  0.22796933  0.94365977    -0.10700
C2484       C  0.59398770  0.24340985  0.93935743     0.22000
C2485       C  0.61458747  0.25941786  0.93577042    -0.20000
C2486       C  0.65418333  0.26007834  0.93642072    -0.10800
C2487       C  0.55197283  0.24366051  0.93823676    -0.15000
C2488       C  0.52688505  0.23126973  0.94236474    -0.28900
C2489       C  0.71637246  0.24467074  0.94151423    -0.03100
C2490       C  0.73991249  0.25554553  0.93605659    -0.39700
H2491       H  0.66854078  0.21654245  0.94763334     0.13100
H2492       H  0.59932795  0.21529392  0.94643106     0.12700
H2493       H  0.59993352  0.27159852  0.93247337     0.12200
H2494       H  0.66870867  0.27288970  0.93375148     0.12400
H2495       H  0.54094361  0.25540971  0.93381726     0.15200
H2496       H  0.53625772  0.21959499  0.94702298     0.13900
H2497       H  0.72860333  0.23463490  0.94667534     0.11600
H2498       H  0.72877536  0.26486833  0.93047061     0.13600
C2499       C  0.09703013  0.24995164  0.93781746     0.19700
C2500       C  0.11779954  0.26744182  0.93825204    -0.18400
C2501       C  0.15664586  0.26776452  0.93610896    -0.10700
C2502       C  0.17568014  0.25045970  0.93358886     0.22000
C2503       C  0.15495088  0.23298406  0.93314002    -0.20000
C2504       C  0.11615114  0.23264455  0.93530844    -0.10800
C2505       C  0.21714825  0.24987919  0.93159623    -0.15000
C2506       C  0.24194436  0.26263140  0.93537661    -0.28900
C2507       C  0.05560403  0.25048561  0.93996695    -0.03100
C2508       C  0.03090063  0.23669967  0.93707664    -0.39700
H2509       H  0.10379324  0.28098360  0.94013875     0.13100
H2510       H  0.17141416  0.28161566  0.93632296     0.12700
H2511       H  0.16901567  0.21943774  0.93128523     0.12200
H2512       H  0.10164214  0.21873384  0.93514147     0.12400
H2513       H  0.22804399  0.23737274  0.92770310     0.15200
H2514       H  0.23193928  0.27435597  0.93990826     0.13900
H2515       H  0.04467275  0.26338317  0.94353655     0.11600
H2516       H  0.04067093  0.22418601  0.93305376     0.13600
C2517       C  0.32308466  0.14169987  0.94094000     0.19700
C2518       C  0.34202166  0.12366605  0.94081942    -0.18400
C2519       C  0.32134421  0.10614157  0.94066015    -0.10700
C2520       C  0.28126179  0.10632204  0.94088783     0.22000
C2521       C  0.26238555  0.12433296  0.94135611    -0.20000
C2522       C  0.28301745  0.14185468  0.94124610    -0.10800
C2523       C  0.25886111  0.08785694  0.94089013    -0.15000
C2524       C  0.26820911  0.07283407  0.93521292    -0.28900
C2525       C  0.34527907  0.16025171  0.94101587    -0.03100
C2526       C  0.33462278  0.17566800  0.93570513    -0.39700
H2527       H  0.37283307  0.12315675  0.94070660     0.13100
H2528       H  0.33669809  0.09243561  0.94052142     0.12700
H2529       H  0.23159255  0.12484351  0.94166057     0.12200
H2530       H  0.26765559  0.15554441  0.94156699     0.12400
H2531       H  0.23375825  0.08687005  0.94538133     0.15200
H2532       H  0.29186800  0.07456075  0.93029674     0.13900
H2533       H  0.37095089  0.16106726  0.94529776     0.11600
H2534       H  0.31043743  0.17406010  0.93095137     0.13600
C2535       C  0.40263904  0.24960914  0.88310110     0.19700
C2536       C  0.38777881  0.23850879  0.87560989    -0.18400
C2537       C  0.40165537  0.24088155  0.86632710    -0.10700
C2538       C  0.43061390  0.25457804  0.86431727     0.22000
C2539       C  0.44392156  0.26641369  0.87172571    -0.20000
C2540       C  0.43023472  0.26395565  0.88100450    -0.10800
C2541       C  0.44649024  0.25731552  0.85454759    -0.15000
C2542       C  0.44675179  0.24293696  0.84804379    -0.28900
C2543       C  0.38907836  0.24611173  0.89302826    -0.03100
C2544       C  0.41257540  0.24842508  0.90047730    -0.39700
H2545       H  0.36589631  0.22770981  0.87697315     0.13100
H2546       H  0.38928382  0.23209472  0.86074715     0.12700
H2547       H  0.46539344  0.27742739  0.87035648     0.12200
H2548       H  0.44119212  0.27341267  0.88651556     0.12400
H2549       H  0.45831811  0.27148454  0.85268334     0.15200
H2550       H  0.43597373  0.22860236  0.84995710     0.13900
H2551       H  0.36003818  0.24119699  0.89419081     0.11600
H2552       H  0.44202253  0.25243247  0.89914347     0.13600
C2553       C  0.63648261  0.89573192  0.81801564     0.19700
C2554       C  0.60852857  0.88138377  0.81949754    -0.18400
C2555       C  0.61748096  0.86151742  0.81857856    -0.10700
C2556       C  0.65482510  0.85567030  0.81626144     0.22000
C2557       C  0.68289105  0.87002022  0.81511393    -0.20000
C2558       C  0.67402347  0.88976927  0.81607725    -0.10800
C2559       C  0.66558895  0.83497522  0.81453964    -0.15000
C2560       C  0.64667686  0.81962228  0.81817555    -0.28900
C2561       C  0.62593596  0.91677366  0.81839179    -0.03100
C2562       C  0.64477587  0.93032749  0.81328074    -0.39700
H2563       H  0.57947804  0.88557551  0.82107723     0.13100
H2564       H  0.59486589  0.85092209  0.81937885     0.12700
H2565       H  0.71191128  0.86592821  0.81343417     0.12200
H2566       H  0.69677015  0.90030026  0.81529372     0.12400
H2567       H  0.69100177  0.83231182  0.81032451     0.15200
H2568       H  0.62241815  0.82191506  0.82281969     0.13900
H2569       H  0.60138097  0.92105007  0.82260113     0.11600
H2570       H  0.66781138  0.92590419  0.80861463     0.13600
C2571       C  0.13803869  0.89307083  0.81256971     0.19700
C2572       C  0.11059337  0.87867178  0.81077454    -0.18400
C2573       C  0.11903214  0.85888955  0.81210511    -0.10700
C2574       C  0.15548542  0.85299447  0.81514403     0.22000
C2575       C  0.18290821  0.86736437  0.81698247    -0.20000
C2576       C  0.17451794  0.88715336  0.81562587    -0.10800
C2577       C  0.16572971  0.83205075  0.81645060    -0.15000
C2578       C  0.14901349  0.81776378  0.81142493    -0.28900
C2579       C  0.12767977  0.91398463  0.81106978    -0.03100
C2580       C  0.14651256  0.92875710  0.81522684    -0.39700
H2581       H  0.08231059  0.88275777  0.80843672     0.13100
H2582       H  0.09669250  0.84832424  0.81087771     0.12700
H2583       H  0.21119839  0.86323980  0.81929933     0.12200
H2584       H  0.19702898  0.89762055  0.81681513     0.12400
H2585       H  0.18887996  0.82842441  0.82126323     0.15200
H2586       H  0.12764540  0.82144529  0.80614684     0.13900
H2587       H  0.10306881  0.91727430  0.80666972     0.11600
H2588       H  0.17002297  0.92568518  0.81999114     0.13600
C2589       C  0.89310690  0.74487282  0.81244098     0.19700
C2590       C  0.91267257  0.72712016  0.81356059    -0.18400
C2591       C  0.95204732  0.72610252  0.81223561    -0.10700
C2592       C  0.97278698  0.74296178  0.80983126     0.22000
C2593       C  0.95320177  0.76069627  0.80869009    -0.20000
C2594       C  0.91386233  0.76171932  0.81002280    -0.10800
C2595       C  0.01468759  0.74297327  0.80846654    -0.15000
C2596       C  0.03851983  0.72886138  0.81154280    -0.28900
C2597       C  0.85126208  0.74499308  0.81392298    -0.03100
C2598       C  0.82762377  0.75928957  0.81096396    -0.39700
H2599       H  0.89735470  0.71389954  0.81539498     0.13100
H2600       H  0.96579565  0.71207282  0.81300440     0.12700
H2601       H  0.96850613  0.77393022  0.80687129     0.12200
H2602       H  0.90019974  0.77577452  0.80928033     0.12400
H2603       H  0.02677379  0.75605104  0.80526870     0.15200
H2604       H  0.02784694  0.71596507  0.81514779     0.13900
H2605       H  0.83907726  0.73201342  0.81719205     0.11600
H2606       H  0.83838177  0.77207887  0.80728677     0.13600
C2607       C  0.39192879  0.74914950  0.81198821     0.19700
C2608       C  0.41057347  0.75675699  0.82001232    -0.18400
C2609       C  0.45014183  0.75525824  0.82085140    -0.10700
C2610       C  0.47191418  0.74606194  0.81377004     0.22000
C2611       C  0.45320894  0.73854043  0.80573963    -0.20000
C2612       C  0.41374245  0.74002071  0.80490745    -0.10800
C2613       C  0.51397742  0.74553468  0.81488153    -0.15000
C2614       C  0.53796513  0.73514213  0.80936201    -0.28900
C2615       C  0.34993925  0.74953045  0.81075120    -0.03100
C2616       C  0.32493584  0.75913183  0.81633426    -0.39700
H2617       H  0.39500561  0.76366500  0.82571051     0.13100
H2618       H  0.46381637  0.76129003  0.82709189     0.12700
H2619       H  0.46862755  0.73175630  0.79998496     0.12200
H2620       H  0.40016737  0.73401380  0.79864674     0.12400
H2621       H  0.52586317  0.75462400  0.82046779     0.15200
H2622       H  0.52744762  0.72567475  0.80379458     0.13900
H2623       H  0.33889740  0.74088827  0.80489526     0.11600
H2624       H  0.33442489  0.76804618  0.82222773     0.13600
C2625       C  0.61235765  0.74340226  0.00983439     0.19700
C2626       C  0.58276667  0.74469599  0.00317926    -0.18400
C2627       C  0.59083499  0.74532068  0.99344174    -0.10700
C2628       C  0.62867910  0.74421800  0.99021278     0.22000
C2629       C  0.65811427  0.74213266  0.99684915    -0.20000
C2630       C  0.65012867  0.74189787  0.00657864    -0.10800
C2631       C  0.63792054  0.74410013  0.97995090    -0.15000
C2632       C  0.61913077  0.75519153  0.97361595    -0.28900
C2633       C  0.60331562  0.74352975  0.02012920    -0.03100
C2634       C  0.62613379  0.75243945  0.02642791    -0.39700
H2635       H  0.55344509  0.74555675  0.00552893     0.13100
H2636       H  0.56747640  0.74630685  0.98844461     0.12700
H2637       H  0.68737737  0.74087236  0.99449511     0.12200
H2638       H  0.67347589  0.74027077  0.01153795     0.12400
H2639       H  0.66124197  0.73487993  0.97759033     0.15200
H2640       H  0.59750038  0.76536742  0.97604364     0.13900
H2641       H  0.57665039  0.73708662  0.02248902     0.11600
H2642       H  0.65138749  0.76006138  0.02393761     0.13600
C2643       C  0.65968663  0.85616515  0.93651915     0.19700
C2644       C  0.66398535  0.86783904  0.94462147    -0.18400
C2645       C  0.67756846  0.88698961  0.94386366    -0.10700
C2646       C  0.68637273  0.89512697  0.93490527     0.22000
C2647       C  0.68210192  0.88340506  0.92679735    -0.20000
C2648       C  0.66875579  0.86418807  0.92756796    -0.10800
C2649       C  0.69940648  0.91575690  0.93370420    -0.15000
C2650       C  0.69256647  0.92973623  0.94019344    -0.28900
C2651       C  0.64620321  0.83567249  0.93769770    -0.03100
C2652       C  0.65685348  0.82125609  0.93180023    -0.39700
H2653       H  0.65748828  0.86198536  0.95160122     0.13100
H2654       H  0.68150492  0.89516584  0.95034985     0.12700
H2655       H  0.68854553  0.88924151  0.91981194     0.12200
H2656       H  0.66503230  0.85579823  0.92112776     0.12400
H2657       H  0.71251429  0.91986233  0.92698781     0.15200
H2658       H  0.67737548  0.92616258  0.94667935     0.13900
H2659       H  0.62993879  0.83203870  0.94403734     0.11600
H2660       H  0.67563847  0.82449465  0.92587013     0.13600
C2661       C  0.66120471  0.74361154  0.86462046     0.19700
C2662       C  0.62736450  0.74572182  0.86980450    -0.18400
C2663       C  0.62791705  0.74596419  0.87972219    -0.10700
C2664       C  0.66251394  0.74417372  0.88467303     0.22000
C2665       C  0.69646170  0.74237149  0.87950742    -0.20000
C2666       C  0.69589947  0.74201229  0.86957182    -0.10800
C2667       C  0.66414048  0.74517401  0.89518185    -0.15000
C2668       C  0.63527847  0.73917423  0.90073795    -0.28900
C2669       C  0.65924693  0.74439913  0.85409676    -0.03100
C2670       C  0.68638153  0.73720592  0.84834364    -0.39700
H2671       H  0.60038114  0.74734576  0.86616021     0.13100
H2672       H  0.60132989  0.74809738  0.88346426     0.12700
H2673       H  0.72349977  0.74131467  0.88317392     0.12200
H2674       H  0.72275081  0.74105591  0.86584246     0.12400
H2675       H  0.69011055  0.75062805  0.89842877     0.15200
H2676       H  0.61026241  0.73248179  0.89759801     0.13900
H2677       H  0.63414375  0.75109881  0.85096430     0.11600
H2678       H  0.71089823  0.72967255  0.85126690     0.13600
C2679       C  0.09404585  0.75203549  0.01179753     0.19700
C2680       C  0.08980452  0.73538326  0.00611448    -0.18400
C2681       C  0.09279457  0.73671940  0.99621457    -0.10700
C2682       C  0.09955946  0.75485870  0.99179253     0.22000
C2683       C  0.10222925  0.77163486  0.99745710    -0.20000
C2684       C  0.09980596  0.77025273  0.00736809    -0.10800
C2685       C  0.10338439  0.75675825  0.98130634    -0.15000
C2686       C  0.11858753  0.74258943  0.97589577    -0.28900
C2687       C  0.09150799  0.75003826  0.02229514    -0.03100
C2688       C  0.11185593  0.76128859  0.02824108    -0.39700
H2689       H  0.08469942  0.72125363  0.00935674     0.13100
H2690       H  0.08932020  0.72358350  0.99204281     0.12700
H2691       H  0.10678772  0.78580823  0.99420946     0.12200
H2692       H  0.10195999  0.78347307  0.01153467     0.12400
H2693       H  0.09551983  0.77057930  0.97803933     0.15200
H2694       H  0.12894075  0.72927492  0.97921214     0.13900
H2695       H  0.07400844  0.73834594  0.02517877     0.11600
H2696       H  0.13142451  0.77208622  0.02537287     0.13600
C2697       C  0.18996351  0.89415486  0.94431969     0.19700
C2698       C  0.21603587  0.87870148  0.94476876    -0.18400
C2699       C  0.20322653  0.85937600  0.94521511    -0.10700
C2700       C  0.16397107  0.85515983  0.94535475     0.22000
C2701       C  0.13794732  0.87065366  0.94541608    -0.20000
C2702       C  0.15074240  0.88996872  0.94484496    -0.10800
C2703       C  0.14970892  0.83472884  0.94540098    -0.15000
C2704       C  0.16764942  0.82067928  0.94049886    -0.28900
C2705       C  0.20419815  0.91451131  0.94341803    -0.03100
C2706       C  0.18487543  0.92809436  0.93848876    -0.39700
H2707       H  0.24635206  0.88157134  0.94457008     0.13100
H2708       H  0.22407871  0.84775296  0.94548987     0.12700
H2709       H  0.10764071  0.86778589  0.94569140     0.12200
H2710       H  0.12988966  0.90159980  0.94487714     0.12400
H2711       H  0.12332067  0.83142309  0.94910431     0.15200
H2712       H  0.19258689  0.82445291  0.93630327     0.13900
H2713       H  0.23139281  0.91821151  0.94662072     0.11600
H2714       H  0.15873953  0.92402512  0.93487527     0.13600
C2715       C  0.84551383  0.74824354  0.93505590     0.19700
C2716       C  0.86761920  0.76489455  0.93321577    -0.18400
C2717       C  0.90731129  0.76373254  0.93301974    -0.10700
C2718       C  0.92569617  0.74576427  0.93453040     0.22000
C2719       C  0.90358511  0.72901802  0.93619411    -0.20000
C2720       C  0.86384543  0.73023483  0.93653099    -0.10800
C2721       C  0.96774028  0.74395343  0.93411362    -0.15000
C2722       C  0.99135945  0.75835315  0.93684441    -0.28900
C2723       C  0.80348482  0.75002564  0.93479412    -0.03100
C2724       C  0.77976418  0.73848501  0.93980603    -0.39700
H2725       H  0.85409487  0.77886347  0.93190999     0.13100
H2726       H  0.92346098  0.77681386  0.93145628     0.12700
H2727       H  0.91712610  0.71497056  0.93726069     0.12200
H2728       H  0.84759815  0.71701086  0.93768706     0.12400
H2729       H  0.97960157  0.72989498  0.93210122     0.15200
H2730       H  0.97989125  0.77181724  0.93972899     0.13900
H2731       H  0.79168520  0.76180897  0.93052115     0.11600
H2732       H  0.79102393  0.72750062  0.94462161     0.13600
C2733       C  0.42435013  0.75865607  0.94420898     0.19700
C2734       C  0.40133713  0.77515456  0.94537227    -0.18400
C2735       C  0.36173851  0.77336691  0.94528262    -0.10700
C2736       C  0.34441427  0.75499578  0.94428804     0.22000
C2737       C  0.36748624  0.73829932  0.94362849    -0.20000
C2738       C  0.40713375  0.74012530  0.94359187    -0.10800
C2739       C  0.30256158  0.75417648  0.94308881    -0.15000
C2740       C  0.28075093  0.73838324  0.94487043    -0.28900
C2741       C  0.46613716  0.76114738  0.94345586    -0.03100
C2742       C  0.48701560  0.75005780  0.93757645    -0.39700
H2743       H  0.41399502  0.78952775  0.94596517     0.13100
H2744       H  0.34453041  0.78644706  0.94580470     0.12700
H2745       H  0.35513059  0.72394512  0.94275061     0.12200
H2746       H  0.42427386  0.72705622  0.94296402     0.12400
H2747       H  0.28886873  0.76755866  0.94069823     0.15200
H2748       H  0.29285807  0.72525996  0.94797514     0.13900
H2749       H  0.47964640  0.77272249  0.94750852     0.11600
H2750       H  0.47308389  0.73907580  0.93323402     0.13600
C2751       C  0.16175470  0.74859247  0.86553828     0.19700
C2752       C  0.18156691  0.75995783  0.87218667    -0.18400
C2753       C  0.17375602  0.75841028  0.88193159    -0.10700
C2754       C  0.14577029  0.74532022  0.88532350     0.22000
C2755       C  0.12537987  0.73427943  0.87864266    -0.20000
C2756       C  0.13314874  0.73586911  0.86889162    -0.10800
C2757       C  0.13626065  0.74311668  0.89566780    -0.15000
C2758       C  0.15900051  0.74951461  0.90270675    -0.28900
C2759       C  0.17073460  0.75098569  0.85519877    -0.03100
C2760       C  0.16209355  0.73751385  0.84857661    -0.39700
H2761       H  0.20324031  0.77013782  0.86982860     0.13100
H2762       H  0.18938632  0.76782374  0.88668205     0.12700
H2763       H  0.10322921  0.72435282  0.88097653     0.12200
H2764       H  0.11607781  0.72735099  0.86403966     0.12400
H2765       H  0.10996925  0.73568120  0.89754691     0.15200
H2766       H  0.18594117  0.75637611  0.90099961     0.13900
H2767       H  0.18570025  0.76413715  0.85300071     0.11600
H2768       H  0.14872718  0.72390780  0.85069673     0.13600
C2769       C  0.92613154  0.35736174  0.81414839     0.19700
C2770       C  0.88835558  0.36400004  0.81405514    -0.18400
C2771       C  0.88008105  0.38389479  0.81468972    -0.10700
C2772       C  0.90956756  0.39771161  0.81544064     0.22000
C2773       C  0.94741765  0.39108474  0.81555903    -0.20000
C2774       C  0.95571642  0.37112490  0.81488689    -0.10800
C2775       C  0.90185897  0.41899393  0.81640623    -0.15000
C2776       C  0.86955413  0.42750823  0.81333849    -0.28900
C2777       C  0.93291529  0.33595422  0.81423778    -0.03100
C2778       C  0.96600164  0.32727585  0.81186940    -0.39700
H2779       H  0.86501384  0.35369260  0.81363191     0.13100
H2780       H  0.85051061  0.38824243  0.81486759     0.12700
H2781       H  0.97065752  0.40138999  0.81623090     0.12200
H2782       H  0.98514860  0.36656248  0.81524575     0.12400
H2783       H  0.92436239  0.42811389  0.81929605     0.15200
H2784       H  0.84792804  0.41891705  0.80977539     0.13900
H2785       H  0.90897418  0.32681669  0.81630838     0.11600
H2786       H  0.98981861  0.33581884  0.80924313     0.13600
C2787       C  0.75909693  0.64538188  0.80939217     0.19700
C2788       C  0.79799897  0.64061131  0.80927995    -0.18400
C2789       C  0.80990446  0.62109664  0.80945782    -0.10700
C2790       C  0.78299061  0.60591506  0.80988191     0.22000
C2791       C  0.74409545  0.61070071  0.80988865    -0.20000
C2792       C  0.73220015  0.63019242  0.80959639    -0.10800
C2793       C  0.79409163  0.58509216  0.81109086    -0.15000
C2794       C  0.82784280  0.57748864  0.80841357    -0.28900
C2795       C  0.74780335  0.66624730  0.81012190    -0.03100
C2796       C  0.71406222  0.67343692  0.80716647    -0.39700
H2797       H  0.81929540  0.65205747  0.80922845     0.13100
H2798       H  0.84009780  0.61803412  0.80965686     0.12700
H2799       H  0.72277745  0.59929378  0.81030563     0.12200
H2800       H  0.70203354  0.63329152  0.80993068     0.12400
H2801       H  0.77277763  0.57538259  0.81412268     0.15200
H2802       H  0.84862152  0.58641127  0.80469350     0.13900
H2803       H  0.76869567  0.67624087  0.81308496     0.11600
H2804       H  0.69384396  0.66412486  0.80350751     0.13600
C2805       C  0.43667428  0.35801154  0.82122782     0.19700
C2806       C  0.45951488  0.37439665  0.81947576    -0.18400
C2807       C  0.44342537  0.39309205  0.81926613    -0.10700
C2808       C  0.40426760  0.39572995  0.82100854     0.22000
C2809       C  0.38190496  0.37940325  0.82328078    -0.20000
C2810       C  0.39782108  0.36066962  0.82326758    -0.10800
C2811       C  0.38637688  0.41538209  0.82061338    -0.15000
C2812       C  0.39745432  0.42895197  0.81425887    -0.28900
C2813       C  0.45329163  0.33816299  0.82061262    -0.03100
C2814       C  0.43607194  0.32433006  0.81542351    -0.39700
H2815       H  0.48957630  0.37266234  0.81798476     0.13100
H2816       H  0.46168131  0.40547337  0.81779160     0.12700
H2817       H  0.35186318  0.38110101  0.82480724     0.12200
H2818       H  0.37979020  0.34822600  0.82481467     0.12400
H2819       H  0.36296775  0.41850177  0.82542825     0.15200
H2820       H  0.41936226  0.42533901  0.80909914     0.13900
H2821       H  0.48067463  0.33528190  0.82391377     0.11600
H2822       H  0.41020886  0.32805459  0.81157863     0.13600
C2823       C  0.63853843  0.50975162  0.81428714     0.19700
C2824       C  0.61826236  0.52727369  0.81307617    -0.18400
C2825       C  0.57925955  0.52700511  0.81098980    -0.10700
C2826       C  0.55987823  0.50912014  0.81012520     0.22000
C2827       C  0.58009141  0.49167665  0.81142944    -0.20000
C2828       C  0.61878991  0.49194293  0.81359971    -0.10800
C2829       C  0.51862945  0.50773403  0.80802150    -0.15000
C2830       C  0.49292641  0.52130505  0.81057301    -0.28900
C2831       C  0.68024413  0.51048147  0.81606136    -0.03100
C2832       C  0.70373832  0.49577181  0.81365669    -0.39700
H2833       H  0.63278687  0.54118996  0.81357661     0.13100
H2834       H  0.56462989  0.54073107  0.80990484     0.12700
H2835       H  0.56569740  0.47772049  0.81092060     0.12200
H2836       H  0.63289355  0.47813142  0.81481695     0.12400
H2837       H  0.50851802  0.49385931  0.80525523     0.15200
H2838       H  0.50204942  0.53477077  0.81392754     0.13900
H2839       H  0.69232217  0.52408619  0.81864286     0.11600
H2840       H  0.69250584  0.48271633  0.81033052     0.13600
C2841       C  0.14265211  0.49221099  0.81319008     0.19700
C2842       C  0.12186610  0.50274652  0.80635863    -0.18400
C2843       C  0.08229158  0.50398418  0.80683364    -0.10700
C2844       C  0.06226248  0.49478329  0.81424654     0.22000
C2845       C  0.08292729  0.48395690  0.82102013    -0.20000
C2846       C  0.12272263  0.48270332  0.82053755    -0.10800
C2847       C  0.01998963  0.49555464  0.81501119    -0.15000
C2848       C  0.99748010  0.50797789  0.81008123    -0.28900
C2849       C  0.18485759  0.49226537  0.81231377    -0.03100
C2850       C  0.21000268  0.48315491  0.81810015    -0.39700
H2851       H  0.13635613  0.51014529  0.80057647     0.13100
H2852       H  0.06782561  0.51197861  0.80128165     0.12700
H2853       H  0.06822442  0.47653269  0.82675841     0.12200
H2854       H  0.13747377  0.47442429  0.82594800     0.12400
H2855       H  0.00676468  0.48529515  0.81991323     0.15200
H2856       H  0.00950254  0.51871088  0.80527232     0.13900
H2857       H  0.19602749  0.50108211  0.80651067     0.11600
H2858       H  0.20057075  0.47420330  0.82401403     0.13600
C2859       C  0.24509682  0.64020147  0.81610966     0.19700
C2860       C  0.22595915  0.62239491  0.81722555    -0.18400
C2861       C  0.24628378  0.60485535  0.81752289    -0.10700
C2862       C  0.28628183  0.60485167  0.81685873     0.22000
C2863       C  0.30553329  0.62270489  0.81614336    -0.20000
C2864       C  0.28517406  0.64022863  0.81569523    -0.10800
C2865       C  0.30826531  0.58636654  0.81695148    -0.15000
C2866       C  0.29522328  0.57041702  0.81249773    -0.28900
C2867       C  0.22290648  0.65862595  0.81572804    -0.03100
C2868       C  0.23429788  0.67386303  0.81042226    -0.39700
H2869       H  0.19519901  0.62204561  0.81773967     0.13100
H2870       H  0.23070885  0.59131667  0.81837068     0.12700
H2871       H  0.33632594  0.62305999  0.81576985     0.12200
H2872       H  0.30087341  0.65379184  0.81517040     0.12400
H2873       H  0.33600797  0.58610452  0.82036060     0.15200
H2874       H  0.26865952  0.57127030  0.80856011     0.13900
H2875       H  0.19665919  0.65957273  0.81979191     0.11600
H2876       H  0.25943355  0.67243462  0.80597228     0.13600
C2877       C  0.99190773  0.50438660  0.00834491     0.19700
C2878       C  0.96852805  0.49121979  0.00340460    -0.18400
C2879       C  0.96512422  0.49216731  0.99348582    -0.10700
C2880       C  0.98484990  0.50654139  0.98824583     0.22000
C2881       C  0.00762274  0.51992472  0.99322589    -0.20000
C2882       C  0.01103606  0.51895960  0.00312887    -0.10800
C2883       C  0.98355564  0.50801195  0.97764314    -0.15000
C2884       C  0.96024272  0.49758739  0.97197120    -0.28900
C2885       C  0.99514181  0.50253161  0.01889591    -0.03100
C2886       C  0.02383518  0.51021517  0.02405399    -0.39700
H2887       H  0.95323555  0.47991929  0.00722825     0.13100
H2888       H  0.94746909  0.48139639  0.99004085     0.12700
H2889       H  0.02295525  0.53124763  0.98942818     0.12200
H2890       H  0.02837897  0.52982003  0.00662261     0.12400
H2891       H  0.00298650  0.51834324  0.97432683     0.15200
H2892       H  0.93990793  0.48739689  0.97496551     0.13900
H2893       H  0.97375307  0.49377324  0.02251732     0.11600
H2894       H  0.04656624  0.51822150  0.02057901     0.13600
C2895       C  0.91592300  0.39602517  0.93602933     0.19700
C2896       C  0.90748385  0.38471837  0.94408433    -0.18400
C2897       C  0.89985308  0.36477210  0.94323946    -0.10700
C2898       C  0.90005614  0.35571650  0.93426729     0.22000
C2899       C  0.90717638  0.36716345  0.92616333    -0.20000
C2900       C  0.91534858  0.38711151  0.92702457    -0.10800
C2901       C  0.89266459  0.33444015  0.93320310    -0.15000
C2902       C  0.90346115  0.32144876  0.93986128    -0.28900
C2903       C  0.92326070  0.41721562  0.93725978    -0.03100
C2904       C  0.94628236  0.42764361  0.93151901    -0.39700
H2905       H  0.90704156  0.39133015  0.95107425     0.13100
H2906       H  0.89323879  0.35654988  0.94961189     0.12700
H2907       H  0.90691223  0.36059469  0.91916514     0.12200
H2908       H  0.92050275  0.39556541  0.92063940     0.12400
H2909       H  0.88031717  0.32926285  0.92659023     0.15200
H2910       H  0.91860301  0.32648087  0.94612385     0.13900
H2911       H  0.91020055  0.42432180  0.94334498     0.11600
H2912       H  0.96133344  0.42050398  0.92574776     0.13600
C2913       C  0.06195728  0.64417562  0.93547589     0.19700
C2914       C  0.02560644  0.63942507  0.93200790    -0.18400
C2915       C  0.01053575  0.62062364  0.93317994    -0.10700
C2916       C  0.03173680  0.60596970  0.93781022     0.22000
C2917       C  0.06806843  0.61072463  0.94127113    -0.20000
C2918       C  0.08314866  0.62948783  0.94008558    -0.10800
C2919       C  0.01774142  0.58554890  0.93914498    -0.15000
C2920       C  0.98756454  0.57771315  0.93460691    -0.28900
C2921       C  0.07620737  0.66458491  0.93418959    -0.03100
C2922       C  0.10615309  0.67218823  0.93890630    -0.39700
H2923       H  0.00853095  0.65039805  0.92844826     0.13100
H2924       H  0.98221093  0.61784666  0.93052395     0.12700
H2925       H  0.08518165  0.59976528  0.94483109     0.12200
H2926       H  0.11154522  0.63217473  0.94271040     0.12400
H2927       H  0.03464371  0.57612023  0.94371895     0.15200
H2928       H  0.97082448  0.58637769  0.92969546     0.13900
H2929       H  0.05983304  0.67413864  0.92955852     0.11600
H2930       H  0.12206016  0.66337263  0.94392353     0.13600
C2931       C  0.90164347  0.50696612  0.86383850     0.19700
C2932       C  0.93860480  0.50331609  0.86719885    -0.18400
C2933       C  0.94747859  0.50555195  0.87682098    -0.10700
C2934       C  0.91930142  0.51130521  0.88334673     0.22000
C2935       C  0.88246729  0.51521273  0.87997359    -0.20000
C2936       C  0.87357459  0.51296596  0.87034605    -0.10800
C2937       C  0.92693701  0.51333664  0.89369509    -0.15000
C2938       C  0.95548312  0.50410552  0.89825264    -0.28900
C2939       C  0.89366724  0.50379797  0.85357423    -0.03100
C2940       C  0.86327720  0.51106360  0.84890836    -0.39700
H2941       H  0.96082765  0.49876331  0.86234161     0.13100
H2942       H  0.97647077  0.50292960  0.87905735     0.12700
H2943       H  0.86022754  0.51966371  0.88484786     0.12200
H2944       H  0.84455813  0.51554735  0.86812935     0.12400
H2945       H  0.90657992  0.52171377  0.89783905     0.15200
H2946       H  0.97486842  0.49469545  0.89438876     0.13900
H2947       H  0.91478685  0.49560867  0.84958030     0.11600
H2948       H  0.84264325  0.52015800  0.85253529     0.13600
C2949       C  0.51612767  0.49867556  0.00867392     0.19700
C2950       C  0.48079898  0.49520950  0.00437986    -0.18400
C2951       C  0.47566517  0.49835602  0.99466509    -0.10700
C2952       C  0.50619565  0.50465593  0.98892772     0.22000
C2953       C  0.54153399  0.50828103  0.99323989    -0.20000
C2954       C  0.54658960  0.50526665  0.00300646    -0.10800
C2955       C  0.50235922  0.50755262  0.97847680    -0.15000
C2956       C  0.47400804  0.49966292  0.97333447    -0.28900
C2957       C  0.51960026  0.49514224  0.01905125    -0.03100
C2958       C  0.54584402  0.50369432  0.02461417    -0.39700
H2959       H  0.45680022  0.49028596  0.00859654     0.13100
H2960       H  0.44753022  0.49603626  0.99179177     0.12700
H2961       H  0.56549833  0.51318723  0.98901003     0.12200
H2962       H  0.57448318  0.50776386  0.00601251     0.12400
H2963       H  0.52448402  0.51578087  0.97483671     0.15200
H2964       H  0.45244270  0.49071106  0.97671278     0.13900
H2965       H  0.49778073  0.48613855  0.02236001     0.11600
H2966       H  0.56673940  0.51359475  0.02159561     0.13600
C2967       C  0.41218492  0.35596385  0.93650467     0.19700
C2968       C  0.38491214  0.37068707  0.93774615    -0.18400
C2969       C  0.39439112  0.39028122  0.93623633    -0.10700
C2970       C  0.43162051  0.39558358  0.93354653     0.22000
C2971       C  0.45879877  0.38089998  0.93221844    -0.20000
C2972       C  0.44942159  0.36132355  0.93379148    -0.10800
C2973       C  0.44295310  0.41630212  0.93223204    -0.15000
C2974       C  0.42776029  0.43053742  0.93754936    -0.28900
C2975       C  0.40097492  0.33528031  0.93820161    -0.03100
C2976       C  0.41988248  0.32020029  0.93435088    -0.39700
H2977       H  0.35607277  0.36700296  0.93981314     0.13100
H2978       H  0.37242081  0.40121295  0.93708957     0.12700
H2979       H  0.48766635  0.38463566  0.93019837     0.12200
H2980       H  0.47175732  0.35058480  0.93305823     0.12400
H2981       H  0.46568489  0.41972758  0.92725566     0.15200
H2982       H  0.40690190  0.42685481  0.94297012     0.13900
H2983       H  0.37568358  0.33242304  0.94243834     0.11600
H2984       H  0.44389813  0.32285173  0.92967680     0.13600
C2985       C  0.75114568  0.49681417  0.93665123     0.19700
C2986       C  0.72918853  0.48017800  0.93463848    -0.18400
C2987       C  0.68938149  0.48133093  0.93431433    -0.10700
C2988       C  0.67093885  0.49915299  0.93614311     0.22000
C2989       C  0.69295755  0.51566782  0.93827050    -0.20000
C2990       C  0.73257247  0.51456826  0.93849787    -0.10800
C2991       C  0.62896512  0.50103532  0.93663844    -0.15000
C2992       C  0.60384766  0.48937235  0.93214544    -0.28900
C2993       C  0.79320280  0.49515465  0.93713714    -0.03100
C2994       C  0.81657596  0.51015339  0.93506018    -0.39700
H2995       H  0.74288408  0.46627322  0.93331949     0.13100
H2996       H  0.67322554  0.46820044  0.93290997     0.12700
H2997       H  0.67939647  0.52949320  0.93985575     0.12200
H2998       H  0.74845892  0.52753355  0.94037756     0.12400
H2999       H  0.61821384  0.51325277  0.94076791     0.15200
H3000       H  0.61352945  0.47779196  0.92748030     0.13900
H3001       H  0.80528642  0.48095092  0.93882489     0.11600
H3002       H  0.80497669  0.52393621  0.93256694     0.13600
C3003       C  0.17218691  0.50665201  0.94169841     0.19700
C3004       C  0.19287069  0.52372034  0.94362329    -0.18400
C3005       C  0.23257193  0.52324671  0.94414489    -0.10700
C3006       C  0.25218320  0.50556420  0.94288249     0.22000
C3007       C  0.23139605  0.48838524  0.94128644    -0.20000
C3008       C  0.19176661  0.48890464  0.94063939    -0.10800
C3009       C  0.29416987  0.50434023  0.94331607    -0.15000
C3010       C  0.31745725  0.51902518  0.94070747    -0.28900
C3011       C  0.13019584  0.50773896  0.94119872    -0.03100
C3012       C  0.10900919  0.49576365  0.93577555    -0.39700
H3013       H  0.17826417  0.53749199  0.94463525     0.13100
H3014       H  0.24771971  0.53663722  0.94566923     0.12700
H3015       H  0.24591809  0.47454271  0.94043275     0.12200
H3016       H  0.17656044  0.47537683  0.93947237     0.12400
H3017       H  0.30634909  0.49019341  0.94508325     0.15200
H3018       H  0.30590130  0.53279584  0.93818768     0.13900
H3019       H  0.11640329  0.51941496  0.94512891     0.11600
H3020       H  0.12249778  0.48488043  0.93129886     0.13600
C3021       C  0.57800809  0.64202267  0.93670060     0.19700
C3022       C  0.55424440  0.63399914  0.92970137    -0.18400
C3023       C  0.54016330  0.61501917  0.93058294    -0.10700
C3024       C  0.54924100  0.60356248  0.93857509     0.22000
C3025       C  0.57390709  0.61131551  0.94545778    -0.20000
C3026       C  0.58799748  0.63038491  0.94458753    -0.10800
C3027       C  0.53440506  0.58334930  0.93979245    -0.15000
C3028       C  0.50216999  0.57690162  0.93564343    -0.28900
C3029       C  0.58974762  0.66279727  0.93558468    -0.03100
C3030       C  0.61487622  0.67229301  0.94115653    -0.39700
H3031       H  0.54628442  0.64251690  0.92351067     0.13100
H3032       H  0.52253080  0.60937950  0.92492129     0.12700
H3033       H  0.58173811  0.60270626  0.95162708     0.12200
H3034       H  0.60595910  0.63591189  0.95019957     0.12400
H3035       H  0.55038526  0.57352176  0.94437277     0.15200
H3036       H  0.48495801  0.58670721  0.93136976     0.13900
H3037       H  0.57598011  0.67090692  0.92989018     0.11600
H3038       H  0.62982892  0.66479926  0.94682575     0.13600
C3039       C  0.42198921  0.49443136  0.88424999     0.19700
C3040       C  0.44536001  0.49479160  0.87616256    -0.18400
C3041       C  0.42935367  0.49481567  0.86703354    -0.10700
C3042       C  0.38962124  0.49387950  0.86582053     0.22000
C3043       C  0.36629782  0.49290590  0.87390850    -0.20000
C3044       C  0.38225384  0.49347941  0.88304048    -0.10800
C3045       C  0.37235654  0.49321700  0.85616262    -0.15000
C3046       C  0.38454811  0.50500327  0.84912745    -0.28900
C3047       C  0.43937251  0.49445542  0.89389787    -0.03100
C3048       C  0.42525487  0.50558373  0.90092461    -0.39700
H3049       H  0.47602553  0.49530685  0.87691705     0.13100
H3050       H  0.44806419  0.49515946  0.86091306     0.12700
H3051       H  0.33567368  0.49194536  0.87315272     0.12200
H3052       H  0.36358665  0.49278264  0.88916283     0.12400
H3053       H  0.34876695  0.48329354  0.85490710     0.15200
H3054       H  0.40625747  0.51583951  0.85069536     0.13900
H3055       H  0.46472248  0.48573094  0.89513367     0.11600
H3056       H  0.40162421  0.51532311  0.89936559     0.13600
C3057       C  0.68855307  0.74900415  0.75860798     0.19700
C3058       C  0.69158347  0.73239606  0.75284124    -0.18400
C3059       C  0.70112007  0.73411919  0.74322421    -0.10700
C3060       C  0.70724095  0.75261929  0.73909191     0.22000
C3061       C  0.70376658  0.76925562  0.74482375    -0.20000
C3062       C  0.69421409  0.76753169  0.75445354    -0.10800
C3063       C  0.71776342  0.75503627  0.72889947    -0.15000
C3064       C  0.70810114  0.74191941  0.72223297    -0.28900
C3065       C  0.68025010  0.74628841  0.76891461    -0.03100
C3066       C  0.68990469  0.75945057  0.77557882    -0.39700
H3067       H  0.68745914  0.71796200  0.75584432     0.13100
H3068       H  0.70452632  0.72087257  0.73914331     0.12700
H3069       H  0.70814190  0.78366589  0.74181734     0.12200
H3070       H  0.69105104  0.78076291  0.75855392     0.12400
H3071       H  0.73218762  0.76838742  0.72676027     0.15200
H3072       H  0.69141493  0.72919048  0.72418744     0.13900
H3073       H  0.66839968  0.73235497  0.77116219     0.11600
H3074       H  0.70365824  0.77300823  0.77353822     0.13600
C3075       C  0.21349999  0.74191466  0.75899754     0.19700
C3076       C  0.24747765  0.74536395  0.75400992    -0.18400
C3077       C  0.24802579  0.74545270  0.74405314    -0.10700
C3078       C  0.21452949  0.74182568  0.73886350     0.22000
C3079       C  0.18080455  0.73779615  0.74385987    -0.20000
C3080       C  0.18016264  0.73793732  0.75381020    -0.10800
C3081       C  0.21396499  0.74128807  0.72828307    -0.15000
C3082       C  0.23846751  0.75133963  0.72274702    -0.28900
C3083       C  0.21411968  0.74185318  0.76957789    -0.03100
C3084       C  0.18370744  0.74660893  0.77492828    -0.39700
H3085       H  0.27368021  0.74811229  0.75783761     0.13100
H3086       H  0.27484726  0.74795656  0.74046971     0.12700
H3087       H  0.15477302  0.73459763  0.74004210     0.12200
H3088       H  0.15372375  0.73454127  0.75740201     0.12400
H3089       H  0.19152229  0.73282991  0.72492772     0.15200
H3090       H  0.25962335  0.76080713  0.72595374     0.13900
H3091       H  0.24096085  0.73852413  0.77306162     0.11600
H3092       H  0.15738855  0.75112735  0.77153400     0.13600
C3093       C  0.44598559  0.74843470  0.67886833     0.19700
C3094       C  0.46799072  0.73174363  0.67709575    -0.18400
C3095       C  0.50743321  0.73313375  0.67614034    -0.10700
C3096       C  0.52569127  0.75133253  0.67688096     0.22000
C3097       C  0.50359378  0.76817098  0.67818261    -0.20000
C3098       C  0.46406791  0.76676252  0.67922894    -0.10800
C3099       C  0.56773872  0.75299211  0.67664479    -0.15000
C3100       C  0.59004080  0.73924226  0.68057943    -0.28900
C3101       C  0.40424529  0.74608239  0.67995240    -0.03100
C3102       C  0.38170812  0.75873075  0.68464513    -0.39700
H3103       H  0.45466040  0.71751444  0.67658460     0.13100
H3104       H  0.52358565  0.71995039  0.67483190     0.12700
H3105       H  0.51704808  0.78237530  0.67863577     0.12200
H3106       H  0.44786794  0.78002697  0.68023105     0.12400
H3107       H  0.58033189  0.76652099  0.67408460     0.15200
H3108       H  0.57720606  0.72651916  0.68391617     0.13900
H3109       H  0.39173857  0.73290909  0.67699412     0.11600
H3110       H  0.39367649  0.77152593  0.68805787     0.13600
C3111       C  0.94533859  0.74631477  0.68658953     0.19700
C3112       C  0.96727603  0.72973564  0.68451844    -0.18400
C3113       C  0.00651038  0.73125103  0.68316596    -0.10700
C3114       C  0.02467920  0.74948057  0.68378526     0.22000
C3115       C  0.00276860  0.76614153  0.68573265    -0.20000
C3116       C  0.96344130  0.76459308  0.68719373    -0.10800
C3117       C  0.06633221  0.75146303  0.68235997    -0.15000
C3118       C  0.09086059  0.73756380  0.68519147    -0.28900
C3119       C  0.90343326  0.74403639  0.68712286    -0.03100
C3120       C  0.87941054  0.75664032  0.69138877    -0.39700
H3121       H  0.95390946  0.71554511  0.68383965     0.13100
H3122       H  0.02241093  0.71820121  0.68142773     0.12700
H3123       H  0.01615688  0.78036531  0.68615926     0.12200
H3124       H  0.94727722  0.77776011  0.68849367     0.12400
H3125       H  0.07727226  0.76528615  0.67969579     0.15200
H3126       H  0.08032495  0.72455693  0.68876131     0.13900
H3127       H  0.89173203  0.73116500  0.68368254     0.11600
H3128       H  0.89015180  0.76906385  0.69533896     0.13600
C3129       C  0.75841131  0.75520038  0.63317758     0.19700
C3130       C  0.75265883  0.77099764  0.62699843    -0.18400
C3131       C  0.76509970  0.77007727  0.61756133    -0.10700
C3132       C  0.78357590  0.75322356  0.61411249     0.22000
C3133       C  0.78764024  0.73711401  0.62018968    -0.20000
C3134       C  0.77522788  0.73804594  0.62961109    -0.10800
C3135       C  0.79748232  0.75154834  0.60415604    -0.15000
C3136       C  0.80455025  0.76710086  0.59860029    -0.28900
C3137       C  0.74661425  0.75690543  0.64328404    -0.03100
C3138       C  0.76518673  0.74737320  0.65022001    -0.39700
H3139       H  0.73900730  0.78419272  0.62951815     0.13100
H3140       H  0.75964295  0.78251583  0.61301890     0.12700
H3141       H  0.80076194  0.72378631  0.61765934     0.12200
H3142       H  0.77859815  0.72523420  0.63404968     0.12400
H3143       H  0.80154900  0.73699368  0.60125810     0.15200
H3144       H  0.80102664  0.78177460  0.60133694     0.13900
H3145       H  0.72349657  0.76676877  0.64508495     0.11600
H3146       H  0.78973703  0.73844806  0.64846578     0.13600
C3147       C  0.61269075  0.76216137  0.56551782     0.19700
C3148       C  0.59263687  0.74444957  0.56602670    -0.18400
C3149       C  0.55372383  0.74414881  0.56809003    -0.10700
C3150       C  0.53366402  0.76167642  0.56955465     0.22000
C3151       C  0.55389867  0.77935784  0.56934109    -0.20000
C3152       C  0.59291620  0.77966339  0.56729098    -0.10800
C3153       C  0.49156299  0.76218138  0.57085544    -0.15000
C3154       C  0.46845049  0.74828543  0.56733971    -0.28900
C3155       C  0.65386403  0.76152034  0.56300069    -0.03100
C3156       C  0.67867188  0.77622934  0.56446098    -0.39700
H3157       H  0.60715564  0.73072334  0.56480865     0.13100
H3158       H  0.53959818  0.73014183  0.56851172     0.12700
H3159       H  0.53920598  0.79306730  0.57046234     0.12200
H3160       H  0.60698494  0.79367114  0.56686618     0.12400
H3161       H  0.47900664  0.77534514  0.57380738     0.15200
H3162       H  0.48045336  0.73577627  0.56369712     0.13900
H3163       H  0.66472557  0.74773836  0.56030333     0.11600
H3164       H  0.66938948  0.78980020  0.56765919     0.13600
C3165       C  0.11326559  0.75419896  0.55848184     0.19700
C3166       C  0.09248187  0.74109170  0.56418963    -0.18400
C3167       C  0.05271551  0.74126025  0.56423997    -0.10700
C3168       C  0.03266622  0.75463836  0.55854856     0.22000
C3169       C  0.05341061  0.76751153  0.55270234    -0.20000
C3170       C  0.09323083  0.76735607  0.55265809    -0.10800
C3171       C  0.99038410  0.75574398  0.55835643    -0.15000
C3172       C  0.96656893  0.74679042  0.56454469    -0.28900
C3173       C  0.15553106  0.75355463  0.55905593    -0.03100
C3174       C  0.18003640  0.76588926  0.55467879    -0.39700
H3175       H  0.10711122  0.73068269  0.56870720     0.13100
H3176       H  0.03812293  0.73080493  0.56870511     0.12700
H3177       H  0.03871761  0.77789218  0.54818270     0.12200
H3178       H  0.10785035  0.77758766  0.54807843     0.12400
H3179       H  0.97822006  0.76515691  0.55291541     0.15200
H3180       H  0.97731536  0.73773497  0.57027067     0.13900
H3181       H  0.16719227  0.74228675  0.56366706     0.11600
H3182       H  0.17009827  0.77732023  0.54995778     0.13600
C3183       C  0.25889881  0.76406876  0.63350179     0.19700
C3184       C  0.23515167  0.76950235  0.62593538    -0.18400
C3185       C  0.24980902  0.77133462  0.61670528    -0.10700
C3186       C  0.28876679  0.76807042  0.61488756     0.22000
C3187       C  0.31280882  0.76359742  0.62253841    -0.20000
C3188       C  0.29805568  0.76147423  0.63173452    -0.10800
C3189       C  0.30477303  0.76886101  0.60507639    -0.15000
C3190       C  0.28459783  0.76254197  0.59758636    -0.28900
C3191       C  0.24277190  0.76183424  0.64324402    -0.03100
C3192       C  0.25615519  0.74833678  0.64934997    -0.39700
H3193       H  0.20508910  0.77199367  0.62714214     0.13100
H3194       H  0.23064667  0.77540524  0.61101151     0.12700
H3195       H  0.34294926  0.76129660  0.62136092     0.12200
H3196       H  0.31742568  0.75798583  0.63747566     0.12400
H3197       H  0.33430891  0.77313729  0.60410540     0.15200
H3198       H  0.25614246  0.75680040  0.59876748     0.13900
H3199       H  0.21981428  0.77147096  0.64541587     0.11600
H3200       H  0.27794337  0.73823186  0.64694046     0.13600
C3201       C  0.60587124  0.00146191  0.75845912     0.19700
C3202       C  0.57327995  0.99852707  0.75287287    -0.18400
C3203       C  0.57594300  0.99743431  0.74295470    -0.10700
C3204       C  0.61141394  0.99940352  0.73837720     0.22000
C3205       C  0.64388937  0.00271776  0.74395572    -0.20000
C3206       C  0.64126864  0.00365133  0.75387964    -0.10800
C3207       C  0.61532662  0.99908102  0.72782357    -0.15000
C3208       C  0.59065630  0.98983658  0.72204965    -0.28900
C3209       C  0.60162077  0.00307208  0.76896860    -0.03100
C3210       C  0.62979952  0.99891725  0.77514114    -0.39700
H3211       H  0.54558882  0.99711535  0.75619941     0.13100
H3212       H  0.55001785  0.99555508  0.73891675     0.12700
H3213       H  0.67143856  0.00463211  0.74061547     0.12200
H3214       H  0.66687273  0.00658347  0.75789767     0.12400
H3215       H  0.63979784  0.00644011  0.72472339     0.15200
H3216       H  0.56711792  0.98162108  0.72505793     0.13900
H3217       H  0.57385264  0.00717957  0.77172591     0.11600
H3218       H  0.65692733  0.99354835  0.77254119     0.13600
C3219       C  0.66966128  0.85080695  0.68303655     0.19700
C3220       C  0.63141063  0.85631628  0.68191455    -0.18400
C3221       C  0.62101946  0.87604407  0.68179722    -0.10700
C3222       C  0.64889846  0.89065783  0.68262942     0.22000
C3223       C  0.68717298  0.88516425  0.68363618    -0.20000
C3224       C  0.69748871  0.86544619  0.68392502    -0.10800
C3225       C  0.63935486  0.91170489  0.68191848    -0.15000
C3226       C  0.60659833  0.91940853  0.68517559    -0.28900
C3227       C  0.67975713  0.82976593  0.68267191    -0.03100
C3228       C  0.71015972  0.82202089  0.68713563    -0.39700
H3229       H  0.60951758  0.84530641  0.68108723     0.13100
H3230       H  0.59138922  0.87982528  0.68076866     0.12700
H3231       H  0.70919005  0.89618864  0.68416771     0.12200
H3232       H  0.72732866  0.86174373  0.68453767     0.12400
H3233       H  0.66108199  0.92138240  0.67905267     0.15200
H3234       H  0.58593479  0.91021698  0.68879136     0.13900
H3235       H  0.66044164  0.82013211  0.67888027     0.11600
H3236       H  0.72804882  0.83108367  0.69161059     0.13600
C3237       C  0.10071968  0.01142091  0.75978352     0.19700
C3238       C  0.13071819  0.01450679  0.75336268    -0.18400
C3239       C  0.12471276  0.01290994  0.74355778    -0.10700
C3240       C  0.08827221  0.00869824  0.73997877     0.22000
C3241       C  0.05792922  0.00638058  0.74637337    -0.20000
C3242       C  0.06412884  0.00748182  0.75619756    -0.10800
C3243       C  0.08127526  0.00725762  0.72959504    -0.15000
C3244       C  0.10558468  0.99798841  0.72375545    -0.28900
C3245       C  0.10822303  0.01277772  0.77015802    -0.03100
C3246       C  0.09103268  0.00103669  0.77653578    -0.39700
H3247       H  0.15901284  0.01783835  0.75595247     0.13100
H3248       H  0.14842702  0.01525568  0.73876600     0.12700
H3249       H  0.02951442  0.00341652  0.74376083     0.12200
H3250       H  0.04022036  0.00555181  0.76096909     0.12400
H3251       H  0.05483532  0.01312492  0.72677857     0.15200
H3252       H  0.13036428  0.99069329  0.72672207     0.13900
H3253       H  0.13017059  0.02283035  0.77253306     0.11600
H3254       H  0.07122491  0.98994598  0.77409572     0.13600
C3255       C  0.88231725  0.99158890  0.68424551     0.19700
C3256       C  0.86052089  0.99349793  0.67595307    -0.18400
C3257       C  0.82113271  0.99602542  0.67652856    -0.10700
C3258       C  0.80289860  0.99631199  0.68544594     0.22000
C3259       C  0.82477730  0.99424072  0.69371370    -0.20000
C3260       C  0.86406279  0.99176658  0.69313544    -0.10800
C3261       C  0.76126565  0.99870162  0.68649144    -0.15000
C3262       C  0.73626084  0.99364691  0.67971720    -0.28900
C3263       C  0.92404176  0.98956894  0.68346052    -0.03100
C3264       C  0.94764226  0.99713160  0.68998787    -0.39700
H3265       H  0.87410862  0.99344591  0.66903487     0.13100
H3266       H  0.80533258  0.99806244  0.67000481     0.12700
H3267       H  0.81134786  0.99429687  0.70065167     0.12200
H3268       H  0.87999957  0.98978899  0.69965084     0.12400
H3269       H  0.75070943  0.00348419  0.69337072     0.15200
H3270       H  0.74600095  0.98781141  0.67297700     0.13900
H3271       H  0.93564116  0.98295644  0.67706522     0.11600
H3272       H  0.93632354  0.00524372  0.69598198     0.13600
C3273       C  0.30389593  0.99057793  0.68092241     0.19700
C3274       C  0.32904046  0.00538184  0.67815118    -0.18400
C3275       C  0.36812076  0.00317501  0.67950110    -0.10700
C3276       C  0.38280585  0.98606792  0.68371887     0.22000
C3277       C  0.35786265  0.97081841  0.68599511    -0.20000
C3278       C  0.31876221  0.97299435  0.68460313    -0.10800
C3279       C  0.42403636  0.98350308  0.68551077    -0.15000
C3280       C  0.44731373  0.99877728  0.68676571    -0.28900
C3281       C  0.26242179  0.99408261  0.68006204    -0.03100
C3282       C  0.23743549  0.98534443  0.68587697    -0.39700
H3283       H  0.31836305  0.01885158  0.67510013     0.13100
H3284       H  0.38659811  0.01486462  0.67715371     0.12700
H3285       H  0.36860309  0.95729804  0.68897876     0.12200
H3286       H  0.30040880  0.96085167  0.68640223     0.12400
H3287       H  0.43557119  0.96877425  0.68565126     0.15200
H3288       H  0.43611471  0.01353986  0.68680552     0.13900
H3289       H  0.25250847  0.00502368  0.67502820     0.11600
H3290       H  0.24734788  0.97523562  0.69129031     0.13600
C3291       C  0.15893319  0.84977894  0.68467434     0.19700
C3292       C  0.13221161  0.85819992  0.67845737    -0.18400
C3293       C  0.11894687  0.87729875  0.67989090    -0.10700
C3294       C  0.13191591  0.88834774  0.68768251     0.22000
C3295       C  0.15784065  0.87968364  0.69401232    -0.20000
C3296       C  0.17104016  0.86067732  0.69258182    -0.10800
C3297       C  0.12131325  0.90917566  0.68932661    -0.15000
C3298       C  0.09524170  0.91944905  0.68434137    -0.28900
C3299       C  0.17240832  0.82942676  0.68292001    -0.03100
C3300       C  0.20457358  0.82195556  0.68671404    -0.39700
H3301       H  0.12196794  0.85006514  0.67237812     0.13100
H3302       H  0.09919910  0.88331280  0.67478055     0.12700
H3303       H  0.16819136  0.88772176  0.70011273     0.12200
H3304       H  0.19033986  0.85460656  0.69778776     0.12400
H3305       H  0.13726724  0.91674246  0.69481918     0.15200
H3306       H  0.07841875  0.91255870  0.67883628     0.13900
H3307       H  0.15500555  0.82022685  0.67837669     0.11600
H3308       H  0.22297497  0.83099370  0.69104893     0.13600
C3309       C  0.39534970  0.86078878  0.56347980     0.19700
C3310       C  0.43422054  0.86564822  0.56336547    -0.18400
C3311       C  0.44605416  0.88520750  0.56326467    -0.10700
C3312       C  0.41916044  0.90041068  0.56346676     0.22000
C3313       C  0.38025559  0.89554357  0.56362146    -0.20000
C3314       C  0.36841305  0.87597258  0.56353174    -0.10800
C3315       C  0.43057495  0.92135873  0.56417436    -0.15000
C3316       C  0.46341202  0.92873766  0.56067427    -0.28900
C3317       C  0.38406904  0.83983681  0.56420392    -0.03100
C3318       C  0.35207065  0.83236823  0.56034694    -0.39700
H3319       H  0.45556178  0.85423300  0.56342889     0.13100
H3320       H  0.47623758  0.88834524  0.56337299     0.12700
H3321       H  0.35891998  0.90694812  0.56389042     0.12200
H3322       H  0.33826540  0.87276355  0.56383856     0.12400
H3323       H  0.41024966  0.93129787  0.56741157     0.15200
H3324       H  0.48273231  0.91942727  0.55671994     0.13900
H3325       H  0.40398868  0.82995951  0.56765587     0.11600
H3326       H  0.33347103  0.84167003  0.55615375     0.13600
C3327       C  0.54973006  0.98383962  0.63331937     0.19700
C3328       C  0.57301773  0.97988788  0.62545672    -0.18400
C3329       C  0.55829321  0.98086319  0.61621924    -0.10700
C3330       C  0.51969488  0.98539248  0.61468431     0.22000
C3331       C  0.49588932  0.98819770  0.62256771    -0.20000
C3332       C  0.51079659  0.98764124  0.63180195    -0.10800
C3333       C  0.50407511  0.98751779  0.60491195    -0.15000
C3334       C  0.52385073  0.99683638  0.59808655    -0.28900
C3335       C  0.56652361  0.98378823  0.64302589    -0.03100
C3336       C  0.55520556  0.99648881  0.64973495    -0.39700
H3337       H  0.60289797  0.97656672  0.62645295     0.13100
H3338       H  0.57709562  0.97809033  0.61027026     0.12700
H3339       H  0.46596223  0.99139256  0.62156401     0.12200
H3340       H  0.49183010  0.99011797  0.63774738     0.12400
H3341       H  0.47537885  0.98240270  0.60347437     0.15200
H3342       H  0.55137978  0.00310828  0.59984700     0.13900
H3343       H  0.58964249  0.97371373  0.64453949     0.11600
H3344       H  0.53367378  0.00730461  0.64798933     0.13600
C3345       C  0.78152232  0.01308864  0.55739283     0.19700
C3346       C  0.76077280  0.99733693  0.55366471    -0.18400
C3347       C  0.72105596  0.99686793  0.55423370    -0.10700
C3348       C  0.70101120  0.01234912  0.55848441     0.22000
C3349       C  0.72177368  0.02834545  0.56199040    -0.20000
C3350       C  0.76153446  0.02877542  0.56144670    -0.10800
C3351       C  0.65888839  0.01228990  0.55975928    -0.15000
C3352       C  0.63480610  0.99891161  0.55609133    -0.28900
C3353       C  0.82378343  0.01234302  0.55690031    -0.03100
C3354       C  0.84751606  0.02293927  0.56240060    -0.39700
H3355       H  0.77543378  0.98508823  0.55045883     0.13100
H3356       H  0.70662805  0.98415593  0.55148967     0.12700
H3357       H  0.70716039  0.04055540  0.56524211     0.12200
H3358       H  0.77628455  0.04143527  0.56417028     0.12400
H3359       H  0.64705131  0.02403131  0.56402447     0.15200
H3360       H  0.64503276  0.98726714  0.55156788     0.13900
H3361       H  0.83591487  0.00147423  0.55216413     0.11600
H3362       H  0.83645038  0.03326691  0.56753557     0.13600
C3363       C  0.27935966  0.99603162  0.56825939     0.19700
C3364       C  0.25859931  0.97848313  0.56796308    -0.18400
C3365       C  0.21912429  0.97868989  0.56644880    -0.10700
C3366       C  0.19988056  0.99653259  0.56524630     0.22000
C3367       C  0.22055414  0.01400312  0.56578358    -0.20000
C3368       C  0.25966590  0.01380997  0.56738138    -0.10800
C3369       C  0.15865924  0.99791680  0.56313410    -0.15000
C3370       C  0.13226171  0.98472173  0.56580114    -0.28900
C3371       C  0.32148663  0.99548071  0.56926470    -0.03100
C3372       C  0.34395258  0.00955676  0.56560867    -0.39700
H3373       H  0.27309482  0.96459347  0.56865943     0.13100
H3374       H  0.20405434  0.96494727  0.56596413     0.12700
H3375       H  0.20630638  0.02794646  0.56499124     0.12200
H3376       H  0.27427720  0.02766467  0.56793669     0.12400
H3377       H  0.14923829  0.01146455  0.55984364     0.15200
H3378       H  0.14041152  0.97160111  0.56963701     0.13900
H3379       H  0.33442179  0.98253894  0.57237184     0.11600
H3380       H  0.33144036  0.02166197  0.56172080     0.13600
C3381       C  0.88177135  0.86703508  0.56805913     0.19700
C3382       C  0.86222535  0.88486684  0.56801621    -0.18400
C3383       C  0.88229595  0.90249418  0.56842182    -0.10700
C3384       C  0.92227287  0.90254029  0.56910431     0.22000
C3385       C  0.94164289  0.88470135  0.56967412    -0.20000
C3386       C  0.92165162  0.86708275  0.56904710    -0.10800
C3387       C  0.94411104  0.92107069  0.56912011    -0.15000
C3388       C  0.93494905  0.93570765  0.56318186    -0.28900
C3389       C  0.86021602  0.84849314  0.56721920    -0.03100
C3390       C  0.87353936  0.83355661  0.56201957    -0.39700
H3391       H  0.83148716  0.88515269  0.56743108     0.13100
H3392       H  0.86658323  0.91609190  0.56822182     0.12700
H3393       H  0.97235461  0.88441510  0.57034072     0.12200
H3394       H  0.93735257  0.85349499  0.56939102     0.12400
H3395       H  0.96891059  0.92231184  0.57369131     0.15200
H3396       H  0.91159197  0.93371342  0.55821015     0.13900
H3397       H  0.83279746  0.84728396  0.57075052     0.11600
H3398       H  0.89992689  0.83537365  0.55807455     0.13600
C3399       C  0.04101132  0.99764623  0.63504791     0.19700
C3400       C  0.00411734  0.00007024  0.63136022    -0.18400
C3401       C  0.99793113  0.00085830  0.62151391    -0.10700
C3402       C  0.02856024  0.99884268  0.61514909     0.22000
C3403       C  0.06535173  0.99627186  0.61883649    -0.20000
C3404       C  0.07162313  0.99582918  0.62866119    -0.10800
C3405       C  0.02299228  0.99795333  0.60467211    -0.15000
C3406       C  0.99571318  0.00785457  0.59995354    -0.28900
C3407       C  0.04636014  0.99582527  0.64552459    -0.03100
C3408       C  0.07880485  0.00080451  0.65003916    -0.39700
H3409       H  0.97997027  0.00123784  0.63611877     0.13100
H3410       H  0.96910034  0.00237889  0.61890596     0.12700
H3411       H  0.08935294  0.99443509  0.61408189     0.12200
H3412       H  0.10028202  0.99338532  0.63121130     0.12400
H3413       H  0.04349037  0.98947570  0.60061882     0.15200
H3414       H  0.97695916  0.01770918  0.60376870     0.13900
H3415       H  0.02229573  0.99067378  0.64969638     0.11600
H3416       H  0.10208203  0.00735460  0.64607778     0.13600
C3417       C  0.53481568  0.11134248  0.56653263     0.19700
C3418       C  0.57116591  0.11972648  0.56569538    -0.18400
C3419       C  0.57571488  0.14004075  0.56526374    -0.10700
C3420       C  0.54388996  0.15247398  0.56578300     0.22000
C3421       C  0.50763391  0.14410629  0.56685210    -0.20000
C3422       C  0.50304356  0.12379329  0.56717260    -0.10800
C3423       C  0.54753313  0.17416072  0.56567163    -0.15000
C3424       C  0.57605576  0.18376161  0.56126508    -0.28900
C3425       C  0.53124953  0.08964775  0.56693351    -0.03100
C3426       C  0.50005232  0.07993587  0.56398775    -0.39700
H3427       H  0.59616771  0.11050379  0.56532003     0.13100
H3428       H  0.60421808  0.14593085  0.56473584     0.12700
H3429       H  0.48270425  0.15333950  0.56741936     0.12200
H3430       H  0.47468000  0.11794364  0.56811278     0.12400
H3431       H  0.52496698  0.18255220  0.56901782     0.15200
H3432       H  0.59740970  0.17567154  0.55732450     0.13900
H3433       H  0.55606295  0.08134125  0.56916230     0.11600
H3434       H  0.47608613  0.08796249  0.56107869     0.13600
C3435       C  0.05450088  0.15231737  0.56250064     0.19700
C3436       C  0.08077149  0.13692955  0.56228020    -0.18400
C3437       C  0.06865070  0.11761710  0.56348927    -0.10700
C3438       C  0.02975064  0.11327287  0.56475836     0.22000
C3439       C  0.00347019  0.12865917  0.56491092    -0.20000
C3440       C  0.01559163  0.14795757  0.56370844    -0.10800
C3441       C  0.01576060  0.09291307  0.56595192    -0.15000
C3442       C  0.03364645  0.07763569  0.56199115    -0.28900
C3443       C  0.06836545  0.17276601  0.56159471    -0.03100
C3444       C  0.05094291  0.18754146  0.56609901    -0.39700
H3445       H  0.11085499  0.13990047  0.56138977     0.13100
H3446       H  0.08992631  0.10620273  0.56359428     0.12700
H3447       H  0.97338907  0.12571232  0.56582995     0.12200
H3448       H  0.99435960  0.15940092  0.56363711     0.12400
H3449       H  0.98910998  0.09057347  0.56971515     0.15200
H3450       H  0.05892919  0.08005763  0.55770550     0.13900
H3451       H  0.09439883  0.17553193  0.55763716     0.11600
H3452       H  0.02639056  0.18449724  0.57055897     0.13600
C3453       C  0.87897877  0.26413518  0.56410686     0.19700
C3454       C  0.85797851  0.24690435  0.56289952    -0.18400
C3455       C  0.81838204  0.24746772  0.56232621    -0.10700
C3456       C  0.79897675  0.26534860  0.56303737     0.22000
C3457       C  0.81999050  0.28260748  0.56424432    -0.20000
C3458       C  0.85970959  0.28206155  0.56472773    -0.10800
C3459       C  0.75691142  0.26633723  0.56325152    -0.15000
C3460       C  0.73421888  0.25286635  0.55923300    -0.28900
C3461       C  0.92060418  0.26254230  0.56532388    -0.03100
C3462       C  0.94546751  0.27679480  0.56311216    -0.39700
H3463       H  0.87226650  0.23290386  0.56252100     0.13100
H3464       H  0.80313885  0.23380953  0.56168613     0.12700
H3465       H  0.80558054  0.29651832  0.56493798     0.12200
H3466       H  0.87504598  0.29554391  0.56590977     0.12400
H3467       H  0.74412352  0.27889736  0.56672279     0.15200
H3468       H  0.74618963  0.24102267  0.55508436     0.13900
H3469       H  0.93137679  0.24851665  0.56777167     0.11600
H3470       H  0.93582214  0.29042706  0.55998281     0.13600
C3471       C  0.37828638  0.25665894  0.56756842     0.19700
C3472       C  0.35675432  0.23942336  0.56799154    -0.18400
C3473       C  0.31714801  0.24017971  0.56876726    -0.10700
C3474       C  0.29837973  0.25826579  0.56927384     0.22000
C3475       C  0.32000522  0.27550646  0.56914114    -0.20000
C3476       C  0.35960369  0.27475329  0.56823290    -0.10800
C3477       C  0.25647814  0.25966971  0.57020671    -0.15000
C3478       C  0.23233104  0.24640899  0.56654266    -0.28900
C3479       C  0.42021667  0.25514732  0.56683517    -0.03100
C3480       C  0.44215721  0.26867894  0.56254775    -0.39700
H3481       H  0.37063719  0.22531509  0.56765907     0.13100
H3482       H  0.30143159  0.22660786  0.56914909     0.12700
H3483       H  0.30617378  0.28960231  0.56967052     0.12200
H3484       H  0.37550287  0.28829140  0.56823882     0.12400
H3485       H  0.24503904  0.27279567  0.57347017     0.15200
H3486       H  0.24309457  0.23404744  0.56254299     0.13900
H3487       H  0.43329528  0.24188590  0.56956535     0.11600
H3488       H  0.42936964  0.28143807  0.55925033     0.13600
C3489       C  0.51193108  0.25531742  0.75913243     0.19700
C3490       C  0.53514508  0.24253000  0.75391888    -0.18400
C3491       C  0.53605329  0.24328785  0.74396799    -0.10700
C3492       C  0.51398687  0.25710416  0.73898531     0.22000
C3493       C  0.49121916  0.27006026  0.74421000    -0.20000
C3494       C  0.49036597  0.26932631  0.75414554    -0.10800
C3495       C  0.51246605  0.25807437  0.72840099    -0.15000
C3496       C  0.53820806  0.24977227  0.72256473    -0.28900
C3497       C  0.51110247  0.25357031  0.76970900    -0.03100
C3498       C  0.48277265  0.26068172  0.77516083    -0.39700
H3499       H  0.55213070  0.23162723  0.75755621     0.13100
H3500       H  0.55338166  0.23271059  0.74027168     0.12700
H3501       H  0.47400202  0.28088027  0.74058085     0.12200
H3502       H  0.47300590  0.27990906  0.75782988     0.12400
H3503       H  0.48887546  0.26609513  0.72527063     0.15200
H3504       H  0.56261621  0.24208934  0.72543460     0.13900
H3505       H  0.53390600  0.24539248  0.77309456     0.11600
H3506       H  0.45885984  0.26817002  0.77193036     0.13600
C3507       C  0.57184219  0.10201687  0.68794703     0.19700
C3508       C  0.53590965  0.11074218  0.68707576    -0.18400
C3509       C  0.53149955  0.13083323  0.68816695    -0.10700
C3510       C  0.56322436  0.14277828  0.68997713     0.22000
C3511       C  0.59907780  0.13401912  0.69112781    -0.20000
C3512       C  0.60347676  0.11381293  0.69008278    -0.10800
C3513       C  0.55986823  0.16435308  0.69058223    -0.15000
C3514       C  0.53214767  0.17438490  0.68612503    -0.28900
C3515       C  0.57475671  0.08073178  0.68622025    -0.03100
C3516       C  0.60293747  0.06921182  0.68948281    -0.39700
H3517       H  0.51102523  0.10194883  0.68553718     0.13100
H3518       H  0.50314363  0.13686527  0.68761097     0.12700
H3519       H  0.62391132  0.14289907  0.69258731     0.12200
H3520       H  0.63171062  0.10764587  0.69068117     0.12400
H3521       H  0.58209108  0.17227296  0.69431744     0.15200
H3522       H  0.51110129  0.16679666  0.68187130     0.13900
H3523       H  0.55111642  0.07402530  0.68245681     0.11600
H3524       H  0.62579760  0.07518443  0.69376638     0.13600
C3525       C  0.55170417  0.25555684  0.61306691     0.19700
C3526       C  0.52822452  0.24195029  0.61771970    -0.18400
C3527       C  0.52310099  0.24262563  0.62758213    -0.10700
C3528       C  0.54117019  0.25715644  0.63302821     0.22000
C3529       C  0.56410043  0.27095215  0.62833338    -0.20000
C3530       C  0.56922701  0.27026391  0.61848581    -0.10800
C3531       C  0.53825833  0.25830315  0.64358536    -0.15000
C3532       C  0.51492169  0.24734170  0.64903266    -0.28900
C3533       C  0.55626203  0.25411636  0.60257005    -0.03100
C3534       C  0.58430017  0.26286624  0.59757575    -0.39700
H3535       H  0.51412249  0.23055559  0.61371474     0.13100
H3536       H  0.50545632  0.23154634  0.63082658     0.12700
H3537       H  0.57822050  0.28237718  0.63231346     0.12200
H3538       H  0.58656159  0.28144043  0.61520173     0.12400
H3539       H  0.55693622  0.26870049  0.64708506     0.15200
H3540       H  0.49551536  0.23691671  0.64588060     0.13900
H3541       H  0.53578189  0.24510543  0.59879888     0.11600
H3542       H  0.60587435  0.27149481  0.60112532     0.13600
C3543       C  0.02061669  0.23155288  0.74393098     0.19700
C3544       C  0.04896850  0.23588945  0.75060540    -0.18400
C3545       C  0.04037098  0.23626560  0.76032001    -0.10700
C3546       C  0.00328805  0.23201260  0.76352682     0.22000
C3547       C  0.97559150  0.22650495  0.75688618    -0.20000
C3548       C  0.98403655  0.22641220  0.74717193    -0.10800
C3549       C  0.99278967  0.23317258  0.77373350    -0.15000
C3550       C  0.00827546  0.24647144  0.77958420    -0.28900
C3551       C  0.02930798  0.23302907  0.73362544    -0.03100
C3552       C  0.00378516  0.24052618  0.72752529    -0.39700
H3553       H  0.07747972  0.23958499  0.74827812     0.13100
H3554       H  0.06275466  0.23987723  0.76529968     0.12700
H3555       H  0.94706661  0.22279732  0.75920077     0.12200
H3556       H  0.96188530  0.22241634  0.74219317     0.12400
H3557       H  0.97052150  0.22354893  0.77636316     0.15200
H3558       H  0.02889379  0.25686422  0.77682385     0.13900
H3559       H  0.05772773  0.22935847  0.73115764     0.11600
H3560       H  0.97655786  0.24563577  0.73021819     0.13600
C3561       C  0.07445511  0.10392344  0.68986262     0.19700
C3562       C  0.03939370  0.11355797  0.69080709    -0.18400
C3563       C  0.03745973  0.13394555  0.69079334    -0.10700
C3564       C  0.07072902  0.14522011  0.68998974     0.22000
C3565       C  0.10596746  0.13565612  0.68925263    -0.20000
C3566       C  0.10786027  0.11519144  0.68908820    -0.10800
C3567       C  0.06923790  0.16688777  0.69050131    -0.15000
C3568       C  0.04071607  0.17732595  0.68659744    -0.28900
C3569       C  0.07486148  0.08219329  0.69019092    -0.03100
C3570       C  0.10201339  0.07098405  0.68619119    -0.39700
H3571       H  0.01330635  0.10525461  0.69156250     0.13100
H3572       H  0.00998313  0.14087129  0.69166561     0.12700
H3573       H  0.13204879  0.14404724  0.68878835     0.12200
H3574       H  0.13549194  0.10829240  0.68861672     0.12400
H3575       H  0.09242726  0.17442111  0.69405407     0.15200
H3576       H  0.01916113  0.16995476  0.68239019     0.13900
H3577       H  0.05060124  0.07509118  0.69353173     0.11600
H3578       H  0.12532034  0.07768156  0.68230241     0.13600
C3579       C  0.81485121  0.23704785  0.67954538     0.19700
C3580       C  0.79264044  0.24908832  0.67367422    -0.18400
C3581       C  0.75300781  0.24993467  0.67484157    -0.10700
C3582       C  0.73482214  0.23852915  0.68186957     0.22000
C3583       C  0.75701968  0.22569593  0.68734900    -0.20000
C3584       C  0.79651946  0.22499030  0.68623509    -0.10800
C3585       C  0.69299738  0.23918142  0.68369498    -0.15000
C3586       C  0.66958363  0.25355473  0.68071967    -0.28900
C3587       C  0.85711102  0.23809963  0.67904896    -0.03100
C3588       C  0.87783562  0.23826019  0.68707166    -0.39700
H3589       H  0.80610710  0.25835275  0.66839982     0.13100
H3590       H  0.73697834  0.25952263  0.67022768     0.12700
H3591       H  0.74382903  0.21644370  0.69267406     0.12200
H3592       H  0.81280249  0.21516558  0.69070072     0.12400
H3593       H  0.68101365  0.22733275  0.68789775     0.15200
H3594       H  0.68053931  0.26575586  0.67662486     0.13900
H3595       H  0.87079327  0.24097599  0.67225727     0.11600
H3596       H  0.86321977  0.23746773  0.69387698     0.13600
C3597       C  0.31260262  0.25228729  0.69598313     0.19700
C3598       C  0.29127344  0.26904080  0.69812446    -0.18400
C3599       C  0.25158735  0.26809767  0.69888856    -0.10700
C3600       C  0.23240661  0.25025014  0.69762258     0.22000
C3601       C  0.25391517  0.23334784  0.69587147    -0.20000
C3602       C  0.29355708  0.23433330  0.69500847    -0.10800
C3603       C  0.19020066  0.24860838  0.69808211    -0.15000
C3604       C  0.16636580  0.26348535  0.69607407    -0.28900
C3605       C  0.35464391  0.25398217  0.69505969    -0.03100
C3606       C  0.37560623  0.24229680  0.68941549    -0.39700
H3607       H  0.30534603  0.28297563  0.69908556     0.13100
H3608       H  0.23617967  0.28132148  0.70056261     0.12700
H3609       H  0.23993175  0.21935689  0.69502316     0.12200
H3610       H  0.30918805  0.22099870  0.69368876     0.12400
H3611       H  0.17832797  0.23418325  0.69937973     0.15200
H3612       H  0.17761354  0.27769266  0.69411251     0.13900
H3613       H  0.36851598  0.26591276  0.69878205     0.11600
H3614       H  0.36181822  0.23111195  0.68518094     0.13600
C3615       C  0.06582385  0.25464606  0.63920014     0.19700
C3616       C  0.05582375  0.24068425  0.63236555    -0.18400
C3617       C  0.06618568  0.24310227  0.62285132    -0.10700
C3618       C  0.08673932  0.25968684  0.61988733     0.22000
C3619       C  0.09848555  0.27320200  0.62675476    -0.20000
C3620       C  0.08810974  0.27078637  0.63631459    -0.10800
C3621       C  0.09580562  0.26310173  0.60967505    -0.15000
C3622       C  0.07193208  0.25715684  0.60280724    -0.28900
C3623       C  0.05262450  0.25148851  0.64918105    -0.03100
C3624       C  0.05499897  0.26495591  0.65609748    -0.39700
H3625       H  0.03949995  0.22789406  0.63437273     0.13100
H3626       H  0.05806916  0.23189581  0.61783399     0.12700
H3627       H  0.11500341  0.28588273  0.62468580     0.12200
H3628       H  0.09776531  0.28162200  0.64132652     0.12400
H3629       H  0.12143449  0.27113427  0.60781385     0.15200
H3630       H  0.04525353  0.25022209  0.60478140     0.13900
H3631       H  0.03999900  0.23741512  0.65089495     0.11600
H3632       H  0.06731980  0.27916626  0.65468341     0.13600
C3633       C  0.85203435  0.50448980  0.75933961     0.19700
C3634       C  0.88178744  0.51018525  0.75330471    -0.18400
C3635       C  0.87920345  0.50721080  0.74351143    -0.10700
C3636       C  0.84638669  0.49873235  0.73952469     0.22000
C3637       C  0.81652589  0.49310425  0.74554332    -0.20000
C3638       C  0.81907370  0.49611920  0.75534773    -0.10800
C3639       C  0.84302279  0.49524283  0.72915671    -0.15000
C3640       C  0.86029476  0.50680289  0.72275484    -0.28900
C3641       C  0.85640892  0.50748377  0.76972892    -0.03100
C3642       C  0.83831945  0.49636334  0.77617439    -0.39700
H3643       H  0.90745527  0.51661524  0.75619923     0.13100
H3644       H  0.90330327  0.51120027  0.73912435     0.12700
H3645       H  0.79096599  0.48659069  0.74263451     0.12200
H3646       H  0.79498746  0.49209160  0.75972497     0.12400
H3647       H  0.82520840  0.48326035  0.72674787     0.15200
H3648       H  0.87613162  0.51951097  0.72511989     0.13900
H3649       H  0.87651383  0.51848142  0.77213116     0.11600
H3650       H  0.81971591  0.48464489  0.77387287     0.13600
C3651       C  0.78390435  0.64174151  0.68011478     0.19700
C3652       C  0.82058203  0.63434430  0.67855158    -0.18400
C3653       C  0.82694616  0.61423926  0.67828638    -0.10700
C3654       C  0.79658259  0.60109259  0.67952516     0.22000
C3655       C  0.75962158  0.60844696  0.68065497    -0.20000
C3656       C  0.75326783  0.62859327  0.68099305    -0.10800
C3657       C  0.80282069  0.57969621  0.67969451    -0.15000
C3658       C  0.83468233  0.57181871  0.68333143    -0.28900
C3659       C  0.77880340  0.66321343  0.68056480    -0.03100
C3660       C  0.74973441  0.67189175  0.68512592    -0.39700
H3661       H  0.84451527  0.64416420  0.67765976     0.13100
H3662       H  0.85561249  0.60903393  0.67705782     0.12700
H3663       H  0.73572299  0.59857511  0.68145432     0.12200
H3664       H  0.72437194  0.63374435  0.68184074     0.12400
H3665       H  0.77977478  0.57022946  0.67739559     0.15200
H3666       H  0.85647960  0.58120279  0.68633710     0.13900
H3667       H  0.80077633  0.67223463  0.67733292     0.11600
H3668       H  0.72838292  0.66322168  0.68878002     0.13600
C3669       C  0.93688619  0.39526392  0.68575613     0.19700
C3670       C  0.93052192  0.38401245  0.69400741    -0.18400
C3671       C  0.94772377  0.36565971  0.69509756    -0.10700
C3672       C  0.97164319  0.35806123  0.68795564     0.22000
C3673       C  0.97822946  0.36940971  0.67979497    -0.20000
C3674       C  0.96106891  0.38771077  0.67870630    -0.10800
C3675       C  0.99034379  0.33851815  0.68867701    -0.15000
C3676       C  0.97824574  0.32411327  0.69448238    -0.28900
C3677       C  0.92102897  0.41531946  0.68438373    -0.03100
C3678       C  0.89357967  0.42352882  0.68979021    -0.39700
H3679       H  0.91308966  0.38939627  0.69976141     0.13100
H3680       H  0.94271943  0.35774782  0.70163917     0.12700
H3681       H  0.99661294  0.36404954  0.67419186     0.12200
H3682       H  0.96689460  0.39606027  0.67231478     0.12400
H3683       H  0.01331262  0.33539846  0.68372656     0.15200
H3684       H  0.95394606  0.32643856  0.69909587     0.13900
H3685       H  0.93323355  0.42392993  0.67863666     0.11600
H3686       H  0.87999117  0.41530779  0.69544334     0.13600
C3687       C  0.36001393  0.49418132  0.75937869     0.19700
C3688       C  0.39251113  0.49359401  0.75356883    -0.18400
C3689       C  0.38949782  0.49548060  0.74367482    -0.10700
C3690       C  0.35364987  0.49776686  0.73931577     0.22000
C3691       C  0.32114385  0.49816465  0.74511187    -0.20000
C3692       C  0.32413875  0.49622498  0.75499555    -0.10800
C3693       C  0.34894347  0.50004657  0.72881906    -0.15000
C3694       C  0.37475249  0.49370111  0.72246288    -0.28900
C3695       C  0.36477386  0.49266947  0.76992075    -0.03100
C3696       C  0.33825070  0.49876169  0.77616464    -0.39700
H3697       H  0.42048840  0.49201931  0.75671399     0.13100
H3698       H  0.41543325  0.49555795  0.73953523     0.12700
H3699       H  0.29317675  0.49979272  0.74196630     0.12200
H3700       H  0.29813567  0.49611797  0.75910130     0.12400
H3701       H  0.32245755  0.50629283  0.72622834     0.15200
H3702       H  0.40029622  0.48634414  0.72489808     0.13900
H3703       H  0.39173645  0.48722181  0.77262743     0.11600
H3704       H  0.31191313  0.50512804  0.77361495     0.13600
C3705       C  0.28946219  0.64094793  0.68649454     0.19700
C3706       C  0.32291120  0.63292873  0.68265126    -0.18400
C3707       C  0.33085286  0.61295264  0.68349680    -0.10700
C3708       C  0.30527024  0.60034232  0.68817903     0.22000
C3709       C  0.27209264  0.60837430  0.69214833    -0.20000
C3710       C  0.26408248  0.62835784  0.69128632    -0.10800
C3711       C  0.31229544  0.57889555  0.68920966    -0.15000
C3712       C  0.33588435  0.56861785  0.68353361    -0.28900
C3713       C  0.28234447  0.66233895  0.68517600    -0.03100
C3714       C  0.25431303  0.67249142  0.68947967    -0.39700
H3715       H  0.34318128  0.64219690  0.67898169     0.13100
H3716       H  0.35731983  0.60759913  0.68057593     0.12700
H3717       H  0.25192925  0.59907384  0.69583446     0.12200
H3718       H  0.23774397  0.63362880  0.69429069     0.12400
H3719       H  0.29608994  0.57111453  0.69460633     0.15200
H3720       H  0.35077457  0.57586208  0.67776260     0.13900
H3721       H  0.30180528  0.67022316  0.68053894     0.11600
H3722       H  0.23506193  0.66534847  0.69439786     0.13600
C3723       C  0.64783487  0.49340364  0.68309572     0.19700
C3724       C  0.62641451  0.50413734  0.67645268    -0.18400
C3725       C  0.58665346  0.50454492  0.67691824    -0.10700
C3726       C  0.56738728  0.49419223  0.68410193     0.22000
C3727       C  0.58879863  0.48333732  0.69068623    -0.20000
C3728       C  0.62847067  0.48294832  0.69023010    -0.10800
C3729       C  0.52529520  0.49402315  0.68512590    -0.15000
C3730       C  0.50029235  0.50394891  0.67965704    -0.28900
C3731       C  0.69008364  0.49436484  0.68251272    -0.03100
C3732       C  0.71435411  0.48377640  0.68788804    -0.39700
H3733       H  0.64054070  0.51238903  0.67089312     0.13100
H3734       H  0.57150971  0.51302047  0.67165555     0.12700
H3735       H  0.57476063  0.47520250  0.69630200     0.12200
H3736       H  0.64345495  0.47469212  0.69559862     0.12400
H3737       H  0.51418141  0.48486788  0.69081199     0.15200
H3738       H  0.50968564  0.51319618  0.67385337     0.13900
H3739       H  0.70184105  0.50477939  0.67745628     0.11600
H3740       H  0.70411540  0.47298707  0.69291675     0.13600
C3741       C  0.14795220  0.49613592  0.69038669     0.19700
C3742       C  0.12795429  0.51341674  0.68848072    -0.18400
C3743       C  0.08903956  0.51290183  0.68653845    -0.10700
C3744       C  0.06934642  0.49503634  0.68658065     0.22000
C3745       C  0.08926317  0.47774664  0.68849197    -0.20000
C3746       C  0.12815160  0.47826656  0.69047770    -0.10800
C3747       C  0.02804928  0.49394262  0.68472263    -0.15000
C3748       C  0.00399997  0.50823973  0.68725657    -0.28900
C3749       C  0.18954981  0.49730604  0.69193433    -0.03100
C3750       C  0.21314835  0.48260655  0.68971244    -0.39700
H3751       H  0.14265445  0.52732375  0.68830435     0.13100
H3752       H  0.07463143  0.52644346  0.68486035     0.12700
H3753       H  0.07454608  0.46383973  0.68860581     0.12200
H3754       H  0.14239899  0.46469467  0.69216203     0.12400
H3755       H  0.01674931  0.48031118  0.68195498     0.15200
H3756       H  0.01454384  0.52124973  0.69078148     0.13900
H3757       H  0.20144492  0.51134746  0.69396471     0.11600
H3758       H  0.20196762  0.46897817  0.68695699     0.13600
C3759       C  0.43706722  0.39242883  0.68859780     0.19700
C3760       C  0.47522560  0.38754768  0.68681976    -0.18400
C3761       C  0.48702775  0.36802634  0.68690972    -0.10700
C3762       C  0.46079803  0.35303665  0.68890207     0.22000
C3763       C  0.42281046  0.35798355  0.69082208    -0.20000
C3764       C  0.41096998  0.37743532  0.69064351    -0.10800
C3765       C  0.47194185  0.33217620  0.68948934    -0.15000
C3766       C  0.50208058  0.32437870  0.68495641    -0.28900
C3767       C  0.42572037  0.41328724  0.68870506    -0.03100
C3768       C  0.39025505  0.41939390  0.68663854    -0.39700
H3769       H  0.49595985  0.39888385  0.68536369     0.13100
H3770       H  0.51675275  0.36481850  0.68565641     0.12700
H3771       H  0.40217410  0.34672770  0.69250300     0.12200
H3772       H  0.38161784  0.38067780  0.69235268     0.12400
H3773       H  0.45313611  0.32257731  0.69348819     0.15200
H3774       H  0.51995457  0.33333736  0.68040563     0.13900
H3775       H  0.44770713  0.42403167  0.69018292     0.11600
H3776       H  0.36867596  0.40901164  0.68442547     0.13600
C3777       C  0.80443444  0.65239572  0.56514527     0.19700
C3778       C  0.81333467  0.63933094  0.57253113    -0.18400
C3779       C  0.80586593  0.61929874  0.57163292    -0.10700
C3780       C  0.78967392  0.61178517  0.56323105     0.22000
C3781       C  0.78118733  0.62482697  0.55581727    -0.20000
C3782       C  0.78871667  0.64481444  0.55670530    -0.10800
C3783       C  0.78040496  0.59064453  0.56196482    -0.15000
C3784       C  0.79696570  0.57618930  0.56698480    -0.28900
C3785       C  0.81247692  0.67367920  0.56641868    -0.03100
C3786       C  0.79483438  0.68774187  0.56135253    -0.39700
H3787       H  0.82557864  0.64468820  0.57909385     0.13100
H3788       H  0.81211898  0.60991002  0.57762167     0.12700
H3789       H  0.76894297  0.61949567  0.54924899     0.12200
H3790       H  0.78262392  0.65413489  0.55068249     0.12400
H3791       H  0.76027651  0.58679790  0.55641010     0.15200
H3792       H  0.81876578  0.57961784  0.57217579     0.13900
H3793       H  0.83283434  0.67790281  0.57185330     0.11600
H3794       H  0.77318580  0.68380818  0.55621063     0.13600
C3795       C  0.66483472  0.36153530  0.56077248     0.19700
C3796       C  0.70400348  0.36540649  0.55997770    -0.18400
C3797       C  0.71772903  0.38460987  0.56001506    -0.10700
C3798       C  0.69248749  0.40040061  0.56099124     0.22000
C3799       C  0.65330008  0.39653173  0.56176977    -0.20000
C3800       C  0.63952085  0.37733518  0.56159257    -0.10800
C3801       C  0.70604438  0.42089633  0.56197115    -0.15000
C3802       C  0.73901765  0.42777638  0.55833021    -0.28900
C3803       C  0.65193912  0.34087510  0.56145966    -0.03100
C3804       C  0.61699030  0.33451430  0.55895866    -0.39700
H3805       H  0.72415250  0.35348277  0.55945381     0.13100
H3806       H  0.74814646  0.38696769  0.55964231     0.12700
H3807       H  0.63328006  0.40842256  0.56264829     0.12200
H3808       H  0.60927874  0.37491297  0.56245850     0.12400
H3809       H  0.68728545  0.43096371  0.56567088     0.15200
H3810       H  0.75692459  0.41847167  0.55398030     0.13900
H3811       H  0.67282918  0.33025470  0.56387536     0.11600
H3812       H  0.59652313  0.34449252  0.55581770     0.13600
C3813       C  0.82394124  0.49987443  0.63430211     0.19700
C3814       C  0.78785246  0.49932072  0.63006042    -0.18400
C3815       C  0.78412283  0.49945109  0.62018204    -0.10700
C3816       C  0.81657503  0.50030417  0.61433836     0.22000
C3817       C  0.85265698  0.50132491  0.61857880    -0.20000
C3818       C  0.85640922  0.50100527  0.62847209    -0.10800
C3819       C  0.81363475  0.50122563  0.60383992    -0.15000
C3820       C  0.78441459  0.49345741  0.59896066    -0.28900
C3821       C  0.82635092  0.50023675  0.64480757    -0.03100
C3822       C  0.85658475  0.49370664  0.64974248    -0.39700
H3823       H  0.76241400  0.49880738  0.63441430     0.13100
H3824       H  0.75578886  0.49938646  0.61717496     0.12700
H3825       H  0.87801143  0.50237792  0.61421793     0.12200
H3826       H  0.88460881  0.50212573  0.63150871     0.12400
H3827       H  0.83674843  0.50825660  0.59999346     0.15200
H3828       H  0.76221594  0.48539637  0.60263778     0.13900
H3829       H  0.80149295  0.50546186  0.64864122     0.11600
H3830       H  0.88078894  0.48732764  0.64609404     0.13600
C3831       C  0.30897112  0.64913554  0.55745889     0.19700
C3832       C  0.33744012  0.63513348  0.55599479    -0.18400
C3833       C  0.32798968  0.61542815  0.55503869    -0.10700
C3834       C  0.28971890  0.60939275  0.55543457     0.22000
C3835       C  0.26111898  0.62348199  0.55643120    -0.20000
C3836       C  0.27059503  0.64318190  0.55749539    -0.10800
C3837       C  0.27918103  0.58845897  0.55504943    -0.15000
C3838       C  0.30074425  0.57488921  0.55933297    -0.28900
C3839       C  0.32002622  0.66991737  0.55844258    -0.03100
C3840       C  0.29911521  0.68288030  0.56334579    -0.39700
H3841       H  0.36710340  0.63942907  0.55571367     0.13100
H3842       H  0.35063166  0.60493971  0.55396537     0.12700
H3843       H  0.23145031  0.61917968  0.55660203     0.12200
H3844       H  0.24781127  0.65370223  0.55821341     0.12400
H3845       H  0.25223559  0.58434496  0.55183529     0.15200
H3846       H  0.32622438  0.57934465  0.56313162     0.13900
H3847       H  0.34623714  0.67464593  0.55503040     0.11600
H3848       H  0.27381701  0.67813783  0.56714236     0.13600
C3849       C  0.48341936  0.51058690  0.55659846     0.19700
C3850       C  0.50654278  0.49453540  0.55889500    -0.18400
C3851       C  0.54609346  0.49667104  0.55929252    -0.10700
C3852       C  0.56319447  0.51487500  0.55737711     0.22000
C3853       C  0.54015579  0.53064986  0.55472028    -0.20000
C3854       C  0.50059486  0.52860122  0.55447542    -0.10800
C3855       C  0.60499982  0.51759045  0.55792745    -0.15000
C3856       C  0.62622251  0.50803221  0.56436518    -0.28900
C3857       C  0.44142318  0.50965164  0.55727431    -0.03100
C3858       C  0.42048495  0.49341926  0.55584465    -0.39700
H3859       H  0.49413713  0.48054286  0.56070823     0.13100
H3860       H  0.56322846  0.48405784  0.56109039     0.12700
H3861       H  0.55272711  0.54472071  0.55310387     0.12200
H3862       H  0.48327723  0.54119624  0.55272716     0.12400
H3863       H  0.61845699  0.52762831  0.55295992     0.15200
H3864       H  0.61245538  0.49862009  0.56956263     0.13900
H3865       H  0.42693497  0.52323254  0.55898420     0.11600
H3866       H  0.43361344  0.48002539  0.55335361     0.13600
C3867       C  0.06384513  0.49780187  0.56581949     0.19700
C3868       C  0.04178810  0.48088346  0.56458508    -0.18400
C3869       C  0.00212345  0.48213091  0.56371106    -0.10700
C3870       C  0.98381871  0.50036427  0.56421018     0.22000
C3871       C  0.00586282  0.51719296  0.56562878    -0.20000
C3872       C  0.04540932  0.51597774  0.56638581    -0.10800
C3873       C  0.94178879  0.50241494  0.56404689    -0.15000
C3874       C  0.91776734  0.48992322  0.55971690    -0.28900
C3875       C  0.10588893  0.49611122  0.56661267    -0.03100
C3876       C  0.12954875  0.51018183  0.56347536    -0.39700
H3877       H  0.05531754  0.46668892  0.56424030     0.13100
H3878       H  0.98588530  0.46880976  0.56290681     0.12700
H3879       H  0.99237498  0.53136884  0.56620477     0.12200
H3880       H  0.06135572  0.52925341  0.56761875     0.12400
H3881       H  0.93012888  0.51524421  0.56753237     0.15200
H3882       H  0.92865543  0.47767603  0.55565723     0.13900
H3883       H  0.11769961  0.48240888  0.56918082     0.11600
H3884       H  0.11803223  0.52315630  0.56008319     0.13600
C3885       C  0.17866946  0.35976831  0.56956501     0.19700
C3886       C  0.21755668  0.36340114  0.56801789    -0.18400
C3887       C  0.23139306  0.38258804  0.56751418    -0.10700
C3888       C  0.20655015  0.39849890  0.56872724     0.22000
C3889       C  0.16786982  0.39479862  0.57049090    -0.20000
C3890       C  0.15398245  0.37568583  0.57084054    -0.10800
C3891       C  0.21971525  0.41913012  0.56856587    -0.15000
C3892       C  0.25013114  0.42562336  0.56362720    -0.28900
C3893       C  0.16474533  0.33929632  0.57013000    -0.03100
C3894       C  0.12981881  0.33394366  0.56716627    -0.39700
H3895       H  0.23721675  0.35135578  0.56713621     0.13100
H3896       H  0.26153136  0.38488474  0.56638422     0.12700
H3897       H  0.14822135  0.40678350  0.57157006     0.12200
H3898       H  0.12406228  0.37340458  0.57231086     0.12400
H3899       H  0.20182445  0.42970751  0.57219450     0.15200
H3900       H  0.26700963  0.41558332  0.55941048     0.13900
H3901       H  0.18456659  0.32813705  0.57252694     0.11600
H3902       H  0.11107268  0.34466576  0.56392661     0.13600
C3903       C  0.31902534  0.49671226  0.63327995     0.19700
C3904       C  0.31702508  0.51367708  0.62769145    -0.18400
C3905       C  0.30432000  0.51285496  0.61829083    -0.10700
C3906       C  0.29367735  0.49492828  0.61421185     0.22000
C3907       C  0.29509286  0.47797847  0.61980752    -0.20000
C3908       C  0.30799639  0.47877092  0.62921367    -0.10800
C3909       C  0.28192038  0.49349360  0.60409368    -0.15000
C3910       C  0.29737696  0.50500607  0.59738145    -0.28900
C3911       C  0.33287249  0.49847035  0.64325103    -0.03100
C3912       C  0.32578148  0.48508742  0.65003143    -0.39700
H3913       H  0.32509941  0.52768413  0.63063367     0.13100
H3914       H  0.30262389  0.52630731  0.61425667     0.12700
H3915       H  0.28715932  0.46399988  0.61681053     0.12200
H3916       H  0.30992448  0.46523162  0.63314698     0.12400
H3917       H  0.26268415  0.48182487  0.60202471     0.15200
H3918       H  0.31899868  0.51558054  0.59936028     0.13900
H3919       H  0.34764067  0.51181786  0.64520800     0.11600
H3920       H  0.30936833  0.47212267  0.64838758     0.13600
C3921       C  0.98097504  0.00495899  0.48922976     0.19700
C3922       C  0.01433695  0.00661984  0.49465536    -0.18400
C3923       C  0.01303381  0.00572182  0.50459940    -0.10700
C3924       C  0.97803142  0.00342731  0.50938309     0.22000
C3925       C  0.94464051  0.00203536  0.50394389    -0.20000
C3926       C  0.94596621  0.00289915  0.49400664    -0.10800
C3927       C  0.97493080  0.00198940  0.51995337    -0.15000
C3928       C  0.00265284  0.00738597  0.52601771    -0.28900
C3929       C  0.98385006  0.00562821  0.47865453    -0.03100
C3930       C  0.95741433  0.99796410  0.47281197    -0.39700
H3931       H  0.04167612  0.00827133  0.49117545     0.13100
H3932       H  0.03965124  0.00644809  0.50842247     0.12700
H3933       H  0.91727075  0.00036638  0.50740599     0.12200
H3934       H  0.91941103  0.00219275  0.49014301     0.12400
H3935       H  0.94815163  0.99673875  0.52287312     0.15200
H3936       H  0.02906898  0.01347224  0.52335272     0.13900
H3937       H  0.00951100  0.01188908  0.47558324     0.11600
H3938       H  0.93257392  0.99070232  0.47573368     0.13600
C3939       C  0.48408205  0.99937312  0.50895673     0.19700
C3940       C  0.50887733  0.98947332  0.50278670    -0.18400
C3941       C  0.50529268  0.99140476  0.49290572    -0.10700
C3942       C  0.47647810  0.00321360  0.48896701     0.22000
C3943       C  0.45175306  0.01309538  0.49512102    -0.20000
C3944       C  0.45513474  0.01106186  0.50497675    -0.10800
C3945       C  0.47167433  0.00594136  0.47852891    -0.15000
C3946       C  0.48259595  0.99260508  0.47207517    -0.28900
C3947       C  0.48894245  0.99691040  0.51943866    -0.03100
C3948       C  0.47393054  0.00922853  0.52588577    -0.39700
H3949       H  0.53139955  0.98036458  0.50562421     0.13100
H3950       H  0.52555721  0.98392486  0.48841272     0.12700
H3951       H  0.42927228  0.02223042  0.49228123     0.12200
H3952       H  0.43451647  0.01848112  0.50937347     0.12400
H3953       H  0.45720004  0.01906715  0.47610706     0.15200
H3954       H  0.49543865  0.97899832  0.47440168     0.13900
H3955       H  0.50629675  0.98479041  0.52192024     0.11600
H3956       H  0.45785672  0.02188626  0.52358677     0.13600
C3957       C  0.67593275  0.99534161  0.43042898     0.19700
C3958       C  0.69686095  0.01277583  0.43017504    -0.18400
C3959       C  0.73596357  0.01275855  0.43194568    -0.10700
C3960       C  0.75518502  0.99514877  0.43385073     0.22000
C3961       C  0.73427880  0.97766285  0.43398599    -0.20000
C3962       C  0.69508979  0.97770124  0.43225598    -0.10800
C3963       C  0.79670435  0.99437126  0.43585508    -0.15000
C3964       C  0.82134322  0.00859778  0.43340866    -0.28900
C3965       C  0.63417568  0.99633548  0.42896844    -0.03100
C3966       C  0.60962985  0.98340431  0.43276630    -0.39700
H3967       H  0.68271356  0.02656571  0.42882764     0.13100
H3968       H  0.75060425  0.02663578  0.43200646     0.12700
H3969       H  0.74836719  0.96388522  0.43539545     0.12200
H3970       H  0.68007182  0.96390980  0.43228528     0.12400
H3971       H  0.80771859  0.98104477  0.43904417     0.15200
H3972       H  0.81161986  0.02153571  0.42967992     0.13900
H3973       H  0.62300886  0.00931476  0.42548349     0.11600
H3974       H  0.61999741  0.97111047  0.43689999     0.13600
C3975       C  0.17763939  0.99953145  0.44042749     0.19700
C3976       C  0.19753939  0.01601799  0.44370837    -0.18400
C3977       C  0.23727136  0.01708858  0.44298949    -0.10700
C3978       C  0.25791206  0.00151372  0.43903842     0.22000
C3979       C  0.23799596  0.98489353  0.43594927    -0.20000
C3980       C  0.19842339  0.98382742  0.43666821    -0.10800
C3981       C  0.29986068  0.00184147  0.43766444    -0.15000
C3982       C  0.32462426  0.01466854  0.44155322    -0.28900
C3983       C  0.13538422  0.99932326  0.44106804    -0.03100
C3984       C  0.11264949  0.98801395  0.43563792    -0.39700
H3985       H  0.18219926  0.02829378  0.44668056     0.13100
H3986       H  0.25139891  0.03022163  0.44536522     0.12700
H3987       H  0.25316592  0.97259605  0.43294017     0.12200
H3988       H  0.18444196  0.97061747  0.43433447     0.12400
H3989       H  0.31118547  0.99015231  0.43328044     0.15200
H3990       H  0.31498843  0.02614799  0.44626979     0.13900
H3991       H  0.12238002  0.00988614  0.44582312     0.11600
H3992       H  0.12469419  0.97809803  0.43044570     0.13600
C3993       C  0.85645261  0.00092515  0.23878774     0.19700
C3994       C  0.84252194  0.01547214  0.24486707    -0.18400
C3995       C  0.85235861  0.01558100  0.25451561    -0.10700
C3996       C  0.87609780  0.00090078  0.25831025     0.22000
C3997       C  0.88911266  0.98609028  0.25224874    -0.20000
C3998       C  0.87929145  0.98599278  0.24263671    -0.10800
C3999       C  0.88870315  0.00038872  0.26842293    -0.15000
C4000       C  0.87520052  0.01206081  0.27533488    -0.28900
C4001       C  0.84655985  0.00162377  0.22851102    -0.03100
C4002       C  0.86872994  0.99350373  0.22180488    -0.39700
H4003       H  0.82458797  0.02702970  0.24209965     0.13100
H4004       H  0.84172018  0.02738163  0.25884188     0.12700
H4005       H  0.90703088  0.97447100  0.25496347     0.12200
H4006       H  0.88938894  0.97404672  0.23830202     0.12400
H4007       H  0.90986839  0.98946988  0.27031216     0.15200
H4008       H  0.85318327  0.02271155  0.27386619     0.13900
H4009       H  0.82122308  0.00962200  0.22638833     0.11600
H4010       H  0.89517404  0.98641191  0.22379379     0.13600
C4011       C  0.94351421  0.98704855  0.36316372     0.19700
C4012       C  0.91497329  0.98614969  0.37013073    -0.18400
C4013       C  0.92443818  0.98628735  0.37979849    -0.10700
C4014       C  0.96276327  0.98679357  0.38268250     0.22000
C4015       C  0.99137353  0.98674307  0.37572346    -0.20000
C4016       C  0.98188691  0.98712246  0.36604528    -0.10800
C4017       C  0.97316492  0.98711392  0.39292130    -0.15000
C4018       C  0.95465944  0.99865185  0.39910752    -0.28900
C4019       C  0.93254923  0.98772365  0.35295795    -0.03100
C4020       C  0.95144892  0.99874305  0.34657675    -0.39700
H4021       H  0.88525829  0.98578896  0.36808509     0.13100
H4022       H  0.90181236  0.98582825  0.38502801     0.12700
H4023       H  0.02107345  0.98684084  0.37778606     0.12200
H4024       H  0.00454433  0.98728165  0.36082423     0.12400
H4025       H  0.99708107  0.97833585  0.39531552     0.15200
H4026       H  0.93261988  0.00839448  0.39646619     0.13900
H4027       H  0.90695981  0.98001611  0.35078578     0.11600
H4028       H  0.97533767  0.00758773  0.34891558     0.13600
C4029       C  0.37565229  0.99088115  0.25898688     0.19700
C4030       C  0.34220726  0.98428858  0.25456460    -0.18400
C4031       C  0.33693014  0.98660742  0.24474272    -0.10700
C4032       C  0.36534935  0.99541556  0.23910234     0.22000
C4033       C  0.39902272  0.00164666  0.24350545    -0.20000
C4034       C  0.40435137  0.99925565  0.25328596    -0.10800
C4035       C  0.36116467  0.99861799  0.22866891    -0.15000
C4036       C  0.33762991  0.98819015  0.22309700    -0.28900
C4037       C  0.37956712  0.98902225  0.26952258    -0.03100
C4038       C  0.40239506  0.00076862  0.27465347    -0.39700
H4039       H  0.31970147  0.97771411  0.25875871     0.13100
H4040       H  0.31026249  0.98188879  0.24167845     0.12700
H4041       H  0.42154165  0.00828361  0.23933634     0.12200
H4042       H  0.43118771  0.00386579  0.25629450     0.12400
H4043       H  0.38013555  0.00916086  0.22534221     0.15200
H4044       H  0.32013355  0.97671889  0.22614667     0.13900
H4045       H  0.36161155  0.97850804  0.27319873     0.11600
H4046       H  0.41871451  0.01210804  0.27111978     0.13600
C4047       C  0.70664058  0.00354203  0.31353442     0.19700
C4048       C  0.68479775  0.01827093  0.30921096    -0.18400
C4049       C  0.64518030  0.01702715  0.30892902    -0.10700
C4050       C  0.62638847  0.00086208  0.31293802     0.22000
C4051       C  0.64813418  0.98624593  0.31737810    -0.20000
C4052       C  0.68783783  0.98748353  0.31765805    -0.10800
C4053       C  0.58429268  0.99900921  0.31302611    -0.15000
C4054       C  0.56053926  0.00941171  0.30744127    -0.28900
C4055       C  0.74871166  0.00557034  0.31326831    -0.03100
C4056       C  0.77401015  0.99315555  0.31723935    -0.39700
H4057       H  0.69845979  0.03087691  0.30602100     0.13100
H4058       H  0.62965241  0.02893508  0.30570031     0.12700
H4059       H  0.63433259  0.97372290  0.32060575     0.12200
H4060       H  0.70331263  0.97575673  0.32104434     0.12400
H4061       H  0.57230613  0.98843377  0.31796909     0.15200
H4062       H  0.57139189  0.01968193  0.30222759     0.13900
H4063       H  0.75952105  0.01810054  0.30934524     0.11600
H4064       H  0.76488030  0.98056769  0.32132269     0.13600
C4065       C  0.20490018  0.00063136  0.30860671     0.19700
C4066       C  0.18088631  0.99389412  0.30135665    -0.18400
C4067       C  0.14194970  0.99820305  0.30145933    -0.10700
C4068       C  0.12622380  0.00964712  0.30879825     0.22000
C4069       C  0.15038529  0.01660364  0.31595959    -0.20000
C4070       C  0.18922175  0.01231571  0.31585051    -0.10800
C4071       C  0.08472638  0.01363929  0.30967724    -0.15000
C4072       C  0.05909439  0.01024256  0.30277736    -0.28900
C4073       C  0.24632406  0.99615377  0.30809683    -0.03100
C4074       C  0.26988293  0.99780712  0.31558357    -0.39700
H4075       H  0.19223067  0.98505908  0.29563889     0.13100
H4076       H  0.12450363  0.99212457  0.29588348     0.12700
H4077       H  0.13915481  0.02544680  0.32168996     0.12200
H4078       H  0.20668884  0.01854959  0.32138496     0.12400
H4079       H  0.07457595  0.01873585  0.31654185     0.15200
H4080       H  0.06802264  0.00520718  0.29582983     0.13900
H4081       H  0.25811182  0.99220116  0.30121599     0.11600
H4082       H  0.25892496  0.00164024  0.32253618     0.13600
C4083       C  0.43692049  0.02319646  0.36370132     0.19700
C4084       C  0.40903600  0.02668525  0.37062111    -0.18400
C4085       C  0.41833653  0.02601239  0.38028334    -0.10700
C4086       C  0.45590903  0.02205348  0.38318514     0.22000
C4087       C  0.48429507  0.02002357  0.37625618    -0.20000
C4088       C  0.47493458  0.02049830  0.36659931    -0.10800
C4089       C  0.46604063  0.01954614  0.39335679    -0.15000
C4090       C  0.44186739  0.01128499  0.39958810    -0.28900
C4091       C  0.42553035  0.02193743  0.35355560    -0.03100
C4092       C  0.44318470  0.00980238  0.34749524    -0.39700
H4093       H  0.37975231  0.02924369  0.36855671     0.13100
H4094       H  0.39604508  0.02841816  0.38546518     0.12700
H4095       H  0.51355691  0.01739906  0.37832158     0.12200
H4096       H  0.49743900  0.01858279  0.36142693     0.12400
H4097       H  0.49471380  0.02328639  0.39560560     0.15200
H4098       H  0.41407400  0.00639836  0.39719030     0.13900
H4099       H  0.40084594  0.03017479  0.35118592     0.11600
H4100       H  0.46652833  0.00077252  0.35000910     0.13600
C4101       C  0.60329143  0.24835708  0.50839619     0.19700
C4102       C  0.63498403  0.24001118  0.50389897    -0.18400
C4103       C  0.63869308  0.24063155  0.49402200    -0.10700
C4104       C  0.61033072  0.24940462  0.48839617     0.22000
C4105       C  0.57851873  0.25767606  0.49288036    -0.20000
C4106       C  0.57481333  0.25706280  0.50277297    -0.10800
C4107       C  0.61329738  0.25062283  0.47788792    -0.15000
C4108       C  0.63452783  0.23832548  0.47265357    -0.28900
C4109       C  0.60135716  0.24762795  0.51893248    -0.03100
C4110       C  0.58009184  0.25979937  0.52423412    -0.39700
H4111       H  0.65737057  0.23326973  0.50806369     0.13100
H4112       H  0.66419178  0.23458890  0.49088728     0.12700
H4113       H  0.55626381  0.26449706  0.48870275     0.12200
H4114       H  0.54945686  0.26321941  0.50592320     0.12400
H4115       H  0.59612747  0.26160184  0.47430330     0.15200
H4116       H  0.65017814  0.22653116  0.47601248     0.13900
H4117       H  0.62011339  0.23733021  0.52249964     0.11600
H4118       H  0.56238899  0.27083882  0.52091026     0.13600
C4119       C  0.57934559  0.13822676  0.44264978     0.19700
C4120       C  0.59691521  0.11994750  0.44354175    -0.18400
C4121       C  0.57497016  0.10287305  0.44381953    -0.10700
C4122       C  0.53493758  0.10381851  0.44346923     0.22000
C4123       C  0.51732064  0.12216406  0.44309832    -0.20000
C4124       C  0.53929715  0.13921443  0.44256917    -0.10800
C4125       C  0.51149550  0.08572807  0.44326391    -0.15000
C4126       C  0.52133531  0.07083417  0.43758314    -0.28900
C4127       C  0.60292066  0.15620269  0.44191919    -0.03100
C4128       C  0.59432217  0.17031346  0.43561871    -0.39700
H4129       H  0.62765972  0.11885611  0.44376383     0.13100
H4130       H  0.58927375  0.08889960  0.44431121     0.12700
H4131       H  0.48657247  0.12326143  0.44292769     0.12200
H4132       H  0.52500384  0.15319760  0.44213323     0.12400
H4133       H  0.48544908  0.08500935  0.44741546     0.15200
H4134       H  0.54605796  0.07256043  0.43299835     0.13900
H4135       H  0.62752982  0.15774121  0.44653003     0.11600
H4136       H  0.57070767  0.16799166  0.43075645     0.13600
C4137       C  0.10931964  0.25021902  0.51358910     0.19700
C4138       C  0.13936534  0.24099656  0.50882732    -0.18400
C4139       C  0.14165955  0.24147794  0.49891291    -0.10700
C4140       C  0.11329376  0.25087086  0.49349407     0.22000
C4141       C  0.08317591  0.26008746  0.49827356    -0.20000
C4142       C  0.08104011  0.25971543  0.50820875    -0.10800
C4143       C  0.11436672  0.25163452  0.48290914    -0.15000
C4144       C  0.13508499  0.23926988  0.47757979    -0.28900
C4145       C  0.10822877  0.24932881  0.52413742    -0.03100
C4146       C  0.09144650  0.26305025  0.52952260    -0.39700
H4147       H  0.16154708  0.23364085  0.51281047     0.13100
H4148       H  0.16607613  0.23472253  0.49560645     0.12700
H4149       H  0.06096187  0.26743101  0.49429824     0.12200
H4150       H  0.05689775  0.26657035  0.51161452     0.12400
H4151       H  0.09662123  0.26243237  0.47937242     0.15200
H4152       H  0.15178971  0.22784611  0.48090938     0.13900
H4153       H  0.12340043  0.23743950  0.52759305     0.11600
H4154       H  0.07795053  0.27558374  0.52620231     0.13600
C4155       C  0.85031513  0.24829612  0.44142943     0.19700
C4156       C  0.87274640  0.23159953  0.43989019    -0.18400
C4157       C  0.91246061  0.23269477  0.44054936    -0.10700
C4158       C  0.93045161  0.25047830  0.44278497     0.22000
C4159       C  0.90796586  0.26694749  0.44459366    -0.20000
C4160       C  0.86836199  0.26593223  0.44379474    -0.10800
C4161       C  0.97250090  0.25219132  0.44340671    -0.15000
C4162       C  0.99595676  0.24201133  0.43772097    -0.28900
C4163       C  0.80843842  0.24833975  0.44001392    -0.03100
C4164       C  0.78582797  0.23250112  0.44086445    -0.39700
H4165       H  0.85987254  0.21784327  0.43791556     0.13100
H4166       H  0.92901006  0.21960266  0.43934322     0.12700
H4167       H  0.92114109  0.28075230  0.44640186     0.12200
H4168       H  0.85172871  0.27902067  0.44498567     0.12400
H4169       H  0.98433287  0.26263618  0.44840373     0.15200
H4170       H  0.98411060  0.23243231  0.43233573     0.13900
H4171       H  0.79543584  0.26238236  0.43842671     0.11600
H4172       H  0.79745931  0.21856881  0.44313242     0.13600
C4173       C  0.35280508  0.25303149  0.44097546     0.19700
C4174       C  0.37307253  0.26118559  0.43334218    -0.18400
C4175       C  0.41270617  0.26217931  0.43355672    -0.10700
C4176       C  0.43289258  0.25516680  0.44147870     0.22000
C4177       C  0.41262623  0.24772855  0.44929156    -0.20000
C4178       C  0.37288174  0.24653805  0.44903639    -0.10800
C4179       C  0.47500834  0.25540084  0.44174123    -0.15000
C4180       C  0.49620254  0.25279122  0.43388236    -0.28900
C4181       C  0.31077593  0.25221818  0.44032014    -0.03100
C4182       C  0.28898161  0.23916869  0.44499973    -0.39700
H4183       H  0.35818010  0.26662165  0.42713168     0.13100
H4184       H  0.42743217  0.26859199  0.42755002     0.12700
H4185       H  0.42762529  0.24252086  0.45553081     0.12200
H4186       H  0.35805866  0.24078415  0.45517925     0.12400
H4187       H  0.48884087  0.25610967  0.44864486     0.15200
H4188       H  0.48256179  0.25024853  0.42707026     0.13900
H4189       H  0.29736280  0.26233326  0.43538289     0.11600
H4190       H  0.30178300  0.22829650  0.44962475     0.13600
C4191       C  0.04603738  0.09963470  0.43950117     0.19700
C4192       C  0.07944505  0.10462441  0.44444134    -0.18400
C4193       C  0.09536492  0.12332633  0.44364024    -0.10700
C4194       C  0.07807765  0.13759084  0.43785442     0.22000
C4195       C  0.04467924  0.13260451  0.43294175    -0.20000
C4196       C  0.02877059  0.11396758  0.43374930    -0.10800
C4197       C  0.09280163  0.15792058  0.43678077    -0.15000
C4198       C  0.12229162  0.16569442  0.44162583    -0.28900
C4199       C  0.03100897  0.07929155  0.44043633    -0.03100
C4200       C  0.00073018  0.07216305  0.43565296    -0.39700
H4201       H  0.09350661  0.09394087  0.44891777     0.13100
H4202       H  0.12114090  0.12634804  0.44754770     0.12700
H4203       H  0.03056463  0.14326010  0.42845782     0.12200
H4204       H  0.00301156  0.11110587  0.42982057     0.12400
H4205       H  0.07706118  0.16737271  0.43196467     0.15200
H4206       H  0.13842987  0.15703931  0.44666205     0.13900
H4207       H  0.04663762  0.06944547  0.44508403     0.11600
H4208       H  0.98458040  0.08129755  0.43083678     0.13600
C4209       C  0.79195273  0.25126910  0.24222860     0.19700
C4210       C  0.82248383  0.24806039  0.24844691    -0.18400
C4211       C  0.81801289  0.25063268  0.25823247    -0.10700
C4212       C  0.78250908  0.25611855  0.26203358     0.22000
C4213       C  0.75197109  0.25937501  0.25581127    -0.20000
C4214       C  0.75647997  0.25685075  0.24601429    -0.10800
C4215       C  0.77639653  0.25873216  0.27240265    -0.15000
C4216       C  0.79766257  0.24962883  0.27900339    -0.28900
C4217       C  0.79814163  0.24853714  0.23187347    -0.03100
C4218       C  0.77795282  0.25817198  0.22524929    -0.39700
H4219       H  0.85010286  0.24384460  0.24570440     0.13100
H4220       H  0.84262647  0.24859770  0.26273828     0.12700
H4221       H  0.72435888  0.26360002  0.25855486     0.12200
H4222       H  0.73197300  0.25896349  0.24147576     0.12400
H4223       H  0.75261427  0.26775198  0.27466159     0.15200
H4224       H  0.82022289  0.23974773  0.27687614     0.13900
H4225       H  0.82144861  0.23916050  0.22965091     0.11600
H4226       H  0.75613509  0.26849654  0.22737394     0.13600
C4227       C  0.83745318  0.15003458  0.31620098     0.19700
C4228       C  0.87538207  0.14372469  0.31697700    -0.18400
C4229       C  0.88461920  0.12384730  0.31653371    -0.10700
C4230       C  0.85598800  0.10973194  0.31521867     0.22000
C4231       C  0.81798144  0.11606366  0.31452497    -0.20000
C4232       C  0.80873279  0.13594252  0.31503724    -0.10800
C4233       C  0.86438418  0.08850267  0.31396213    -0.15000
C4234       C  0.89781996  0.07973474  0.31608864    -0.28900
C4235       C  0.82954543  0.17141136  0.31585680    -0.03100
C4236       C  0.79582244  0.17968634  0.31807872    -0.39700
H4237       H  0.89812165  0.15428119  0.31778045     0.13100
H4238       H  0.91429869  0.11979274  0.31691440     0.12700
H4239       H  0.79531448  0.10558454  0.31341869     0.12200
H4240       H  0.77929641  0.14021958  0.31416993     0.12400
H4241       H  0.84139809  0.07955225  0.31118570     0.15200
H4242       H  0.92088032  0.08794356  0.31927335     0.13900
H4243       H  0.85307273  0.18084643  0.31381071     0.11600
H4244       H  0.77259491  0.17079678  0.32076789     0.13600
C4245       C  0.70305462  0.24953127  0.38554576     0.19700
C4246       C  0.73920969  0.25563335  0.38247548    -0.18400
C4247       C  0.74893707  0.25512485  0.37284240    -0.10700
C4248       C  0.72243388  0.24859088  0.36607247     0.22000
C4249       C  0.68632558  0.24255056  0.36912222    -0.20000
C4250       C  0.67650603  0.24317793  0.37872532    -0.10800
C4251       C  0.73138644  0.24740629  0.35580745    -0.15000
C4252       C  0.75746244  0.25869869  0.35146704    -0.28900
C4253       C  0.69422255  0.25026769  0.39587041    -0.03100
C4254       C  0.66441296  0.24109469  0.39992038    -0.39700
H4255       H  0.76019067  0.26061273  0.38756594     0.13100
H4256       H  0.77737299  0.25947244  0.37077832     0.12700
H4257       H  0.66539996  0.23752803  0.36402568     0.12200
H4258       H  0.64795675  0.23888591  0.38066509     0.12400
H4259       H  0.71423620  0.23750744  0.35155800     0.15200
H4260       H  0.77342974  0.26949788  0.35544900     0.13900
H4261       H  0.71375200  0.25836959  0.40037384     0.11600
H4262       H  0.64501619  0.23235742  0.39572297     0.13600
C4263       C  0.28944950  0.25314942  0.24509358     0.19700
C4264       C  0.26859059  0.26614218  0.25077930    -0.18400
C4265       C  0.27113867  0.26549696  0.26071929    -0.10700
C4266       C  0.29433341  0.25153521  0.26529702     0.22000
C4267       C  0.31538966  0.23860818  0.25960157    -0.20000
C4268       C  0.31293415  0.23930660  0.24964988    -0.10800
C4269       C  0.29759399  0.24993101  0.27590219    -0.15000
C4270       C  0.27387497  0.25883543  0.28206801    -0.28900
C4271       C  0.28502723  0.25425009  0.23451104    -0.03100
C4272       C  0.31018286  0.24667109  0.22828289    -0.39700
H4273       H  0.25033548  0.27698805  0.24750513     0.13100
H4274       H  0.25504153  0.27614649  0.26468868     0.12700
H4275       H  0.33351247  0.22769915  0.26287153     0.12200
H4276       H  0.32889000  0.22867574  0.24561736     0.12400
H4277       H  0.31988523  0.24059074  0.27874263     0.15200
H4278       H  0.25065519  0.26775963  0.27946760     0.13900
H4279       H  0.26059446  0.26215725  0.23174200     0.11600
H4280       H  0.33573377  0.23955603  0.23087090     0.13600
C4281       C  0.98761373  0.25267080  0.31581227     0.19700
C4282       C  0.00963612  0.23572144  0.31484801    -0.18400
C4283       C  0.04926336  0.23684027  0.31474477    -0.10700
C4284       C  0.06750916  0.25502907  0.31552451     0.22000
C4285       C  0.04548996  0.27202178  0.31628025    -0.20000
C4286       C  0.00584955  0.27088820  0.31647373    -0.10800
C4287       C  0.10936107  0.25685116  0.31526411    -0.15000
C4288       C  0.13278984  0.24287651  0.31854086    -0.28900
C4289       C  0.94578355  0.25088169  0.31547093    -0.03100
C4290       C  0.92188196  0.26385474  0.31943334    -0.39700
H4291       H  0.99611240  0.22157536  0.31414442     0.13100
H4292       H  0.06543202  0.22352683  0.31383856     0.12700
H4293       H  0.05902608  0.28620682  0.31674131     0.12200
H4294       H  0.98968862  0.28430426  0.31688543     0.12400
H4295       H  0.12119008  0.27062621  0.31278329     0.15200
H4296       H  0.12138487  0.22962480  0.32169852     0.13900
H4297       H  0.93425748  0.23808497  0.31192953     0.11600
H4298       H  0.93266711  0.27609293  0.32351457     0.13600
C4299       C  0.56720155  0.24049715  0.31674294     0.19700
C4300       C  0.54536831  0.22363133  0.31824388    -0.18400
C4301       C  0.50563509  0.22465952  0.31830420    -0.10700
C4302       C  0.48709354  0.24266360  0.31718432     0.22000
C4303       C  0.50890486  0.25964394  0.31586364    -0.20000
C4304       C  0.54861782  0.25856499  0.31561634    -0.10800
C4305       C  0.44502427  0.24311470  0.31689367    -0.15000
C4306       C  0.42415530  0.25798727  0.32033663    -0.28900
C4307       C  0.60927553  0.23903052  0.31678514    -0.03100
C4308       C  0.63141266  0.25080393  0.31148570    -0.39700
H4309       H  0.55908580  0.20960264  0.31922243     0.13100
H4310       H  0.48930348  0.21138445  0.31929209     0.12700
H4311       H  0.49531615  0.27367672  0.31482907     0.12200
H4312       H  0.56469505  0.27192063  0.31468953     0.12400
H4313       H  0.43065968  0.23029493  0.31409256     0.15200
H4314       H  0.43787497  0.27013133  0.32391733     0.13900
H4315       H  0.62226392  0.22787444  0.32123415     0.11600
H4316       H  0.61848081  0.26119622  0.30661586     0.13600
C4317       C  0.35542081  0.10780602  0.31367042     0.19700
C4318       C  0.32056650  0.11430308  0.31739269    -0.18400
C4319       C  0.31057590  0.13407144  0.31707202    -0.10700
C4320       C  0.33559078  0.14796866  0.31312067     0.22000
C4321       C  0.37030728  0.14145442  0.30931136    -0.20000
C4322       C  0.38027657  0.12165391  0.30961579    -0.10800
C4323       C  0.32658077  0.16926039  0.31275849    -0.15000
C4324       C  0.30031025  0.17793829  0.31832337    -0.28900
C4325       C  0.36490725  0.08662536  0.31443582    -0.03100
C4326       C  0.39179707  0.07755898  0.30920937    -0.39700
H4327       H  0.30078130  0.10399026  0.32052719     0.13100
H4328       H  0.28305695  0.13823697  0.31983701     0.12700
H4329       H  0.39012955  0.15178981  0.30621055     0.12200
H4330       H  0.40776002  0.11743486  0.30684454     0.12400
H4331       H  0.34347999  0.17829514  0.30799284     0.15200
H4332       H  0.28434019  0.16946006  0.32347913     0.13900
H4333       H  0.34802217  0.07796016  0.31936546     0.11600
H4334       H  0.40792793  0.08557590  0.30390948     0.13600
C4335       C  0.20943589  0.24479907  0.39026233     0.19700
C4336       C  0.23747501  0.25741775  0.38663675    -0.18400
C4337       C  0.24869462  0.25648243  0.37709356    -0.10700
C4338       C  0.23212509  0.24274956  0.37090352     0.22000
C4339       C  0.20466736  0.22986559  0.37459532    -0.20000
C4340       C  0.19349511  0.23079182  0.38413361    -0.10800
C4341       C  0.24159806  0.24142821  0.36056353    -0.15000
C4342       C  0.26611485  0.25324679  0.35590551    -0.28900
C4343       C  0.19858282  0.24651977  0.40048661    -0.03100
C4344       C  0.16778364  0.23798927  0.40446317    -0.39700
H4345       H  0.25062089  0.26820637  0.39120169     0.13100
H4346       H  0.27014162  0.26665231  0.37469509     0.12700
H4347       H  0.19158319  0.21901274  0.37005599     0.12200
H4348       H  0.17268106  0.22034427  0.38661424     0.12400
H4349       H  0.22649966  0.23040837  0.35648877     0.15200
H4350       H  0.28166733  0.26452481  0.35962853     0.13900
H4351       H  0.21684433  0.25544489  0.40495142     0.11600
H4352       H  0.14845059  0.22929426  0.40022568     0.13600
C4353       C  0.85842005  0.76525580  0.51039313     0.19700
C4354       C  0.89531584  0.76622366  0.50657975    -0.18400
C4355       C  0.90162389  0.76317286  0.49688656    -0.10700
C4356       C  0.87087921  0.75931451  0.49076687     0.22000
C4357       C  0.83388431  0.75890424  0.49455199    -0.20000
C4358       C  0.82760585  0.76191928  0.50424066    -0.10800
C4359       C  0.87576813  0.75488505  0.48050877    -0.15000
C4360       C  0.90801305  0.75776681  0.47550308    -0.28900
C4361       C  0.85363658  0.76753721  0.52081171    -0.03100
C4362       C  0.82334922  0.76089181  0.52574154    -0.39700
H4363       H  0.91953642  0.76886035  0.51116728     0.13100
H4364       H  0.93064067  0.76338602  0.49434417     0.12700
H4365       H  0.80964626  0.75611389  0.48999214     0.12200
H4366       H  0.79862609  0.76166568  0.50682539     0.12400
H4367       H  0.85095311  0.74917224  0.47683012     0.15200
H4368       H  0.93294481  0.76425039  0.47874783     0.13900
H4369       H  0.87746013  0.77380514  0.52467680     0.11600
H4370       H  0.79978031  0.75382280  0.52215900     0.13600
C4371       C  0.94770242  0.88973280  0.42952853     0.19700
C4372       C  0.97570766  0.87554489  0.42791028    -0.18400
C4373       C  0.96629713  0.85569558  0.42794792    -0.10700
C4374       C  0.92845959  0.84966872  0.42943163     0.22000
C4375       C  0.90009906  0.86388188  0.43055321    -0.20000
C4376       C  0.90961874  0.88373631  0.43068984    -0.10800
C4377       C  0.91820834  0.82864997  0.42994458    -0.15000
C4378       C  0.94085643  0.81567672  0.43436339    -0.28900
C4379       C  0.95880170  0.91066829  0.42977463    -0.03100
C4380       C  0.94123709  0.92362015  0.43544735    -0.39700
H4381       H  0.00507962  0.87981816  0.42681594     0.13100
H4382       H  0.98861571  0.84506295  0.42678971     0.12700
H4383       H  0.87068790  0.85958961  0.43156073     0.12200
H4384       H  0.88712636  0.89435977  0.43162392     0.12400
H4385       H  0.89060733  0.82405059  0.42727880     0.15200
H4386       H  0.96689273  0.82072699  0.43772514     0.13900
H4387       H  0.98275291  0.91535681  0.42543987     0.11600
H4388       H  0.91872543  0.91868872  0.44017804     0.13600
C4389       C  0.34565715  0.75585128  0.50885986     0.19700
C4390       C  0.36108106  0.76989843  0.50270219    -0.18400
C4391       C  0.36801105  0.76540882  0.49315489    -0.10700
C4392       C  0.35902606  0.74681118  0.48953235     0.22000
C4393       C  0.34224352  0.73300392  0.49561804    -0.20000
C4394       C  0.33597357  0.73738151  0.50521453    -0.10800
C4395       C  0.36550755  0.74177874  0.47937238    -0.15000
C4396       C  0.39446726  0.74936866  0.47430002    -0.28900
C4397       C  0.33936364  0.76084447  0.51901420    -0.03100
C4398       C  0.34619156  0.74789705  0.52599493    -0.39700
H4399       H  0.36825301  0.78429968  0.50532066     0.13100
H4400       H  0.37973801  0.77664987  0.48859168     0.12700
H4401       H  0.33439998  0.71872201  0.49296464     0.12200
H4402       H  0.32307779  0.72641932  0.50974925     0.12400
H4403       H  0.34633507  0.73138309  0.47604795     0.15200
H4404       H  0.41481221  0.75895205  0.47775358     0.13900
H4405       H  0.33114153  0.77568512  0.52079881     0.11600
H4406       H  0.35729564  0.73356787  0.52418327     0.13600
C4407       C  0.42293960  0.85172144  0.43271125     0.19700
C4408       C  0.39425811  0.86582461  0.43175882    -0.18400
C4409       C  0.40291995  0.88572474  0.43251425    -0.10700
C4410       C  0.44068792  0.89186247  0.43407922     0.22000
C4411       C  0.46938378  0.87773440  0.43484594    -0.20000
C4412       C  0.46073131  0.85790175  0.43409859    -0.10800
C4413       C  0.45112503  0.91272119  0.43531418    -0.15000
C4414       C  0.43102755  0.92753469  0.43154840    -0.28900
C4415       C  0.41304071  0.83065215  0.43229517    -0.03100
C4416       C  0.43171280  0.81741378  0.43759299    -0.39700
H4417       H  0.36496862  0.86140898  0.43068073     0.13100
H4418       H  0.37985916  0.89615398  0.43211478     0.12700
H4419       H  0.49867636  0.88206785  0.43600489     0.12200
H4420       H  0.48373715  0.84743391  0.43456785     0.12400
H4421       H  0.47706758  0.91594312  0.43921720     0.15200
H4422       H  0.40627581  0.92456794  0.42717090     0.13900
H4423       H  0.38925860  0.82610041  0.42788942     0.11600
H4424       H  0.45366654  0.82227132  0.44248381     0.13600
C4425       C  0.70165003  0.74590237  0.44257713     0.19700
C4426       C  0.68037845  0.72978315  0.44571266    -0.18400
C4427       C  0.64073129  0.73062241  0.44601660    -0.10700
C4428       C  0.62161696  0.74776256  0.44331390     0.22000
C4429       C  0.64288200  0.76411962  0.44046236    -0.20000
C4430       C  0.68261947  0.76317335  0.44000696    -0.10800
C4431       C  0.57959303  0.74899783  0.44352405    -0.15000
C4432       C  0.55722714  0.73373623  0.44130306    -0.28900
C4433       C  0.74362121  0.74439922  0.44263541    -0.03100
C4434       C  0.76684080  0.75442910  0.43675976    -0.39700
H4435       H  0.69451415  0.71644388  0.44789451     0.13100
H4436       H  0.62513188  0.71796783  0.44850845     0.12700
H4437       H  0.62867256  0.77756306  0.43847684     0.12200
H4438       H  0.69832576  0.77603832  0.43784533     0.12400
H4439       H  0.56678923  0.76319549  0.44482125     0.15200
H4440       H  0.56983765  0.71997498  0.43912571     0.13900
H4441       H  0.75583773  0.73382085  0.44753834     0.11600
H4442       H  0.75528068  0.76413450  0.43137308     0.13600
C4443       C  0.12142326  0.74021018  0.43979335     0.19700
C4444       C  0.14253398  0.75675409  0.43712618    -0.18400
C4445       C  0.18209405  0.75577488  0.43622055    -0.10700
C4446       C  0.20135325  0.73817882  0.43805648     0.22000
C4447       C  0.18024592  0.72166201  0.44076698    -0.20000
C4448       C  0.14066634  0.72260276  0.44159994    -0.10800
C4449       C  0.24344234  0.73683768  0.43804572    -0.15000
C4450       C  0.26671255  0.74909814  0.43328909    -0.28900
C4451       C  0.07968355  0.74216730  0.44098366    -0.03100
C4452       C  0.05499320  0.72722386  0.44013721    -0.39700
H4453       H  0.12836065  0.77054519  0.43580168     0.13100
H4454       H  0.19744173  0.76896091  0.43440433     0.12700
H4455       H  0.19451499  0.70802239  0.44237354     0.12200
H4456       H  0.12548323  0.70970148  0.44392634     0.12400
H4457       H  0.25584463  0.72506029  0.44221560     0.15200
H4458       H  0.25527403  0.76027215  0.42861411     0.13900
H4459       H  0.06864277  0.75683186  0.44204928     0.11600
H4460       H  0.06496970  0.71269388  0.43835199     0.13600
C4461       C  0.01634448  0.74235081  0.24255309     0.19700
C4462       C  0.04809245  0.74243380  0.24860875    -0.18400
C4463       C  0.04339475  0.74348126  0.25848353    -0.10700
C4464       C  0.00670308  0.74410658  0.26248184     0.22000
C4465       C  0.97499440  0.74339464  0.25643838    -0.20000
C4466       C  0.97968310  0.74266621  0.24657667    -0.10800
C4467       C  0.00042444  0.74435792  0.27291419    -0.15000
C4468       C  0.02430828  0.75300837  0.27909158    -0.28900
C4469       C  0.02216124  0.74136234  0.23210077    -0.03100
C4470       C  0.99805344  0.74976419  0.22588366    -0.39700
H4471       H  0.07659883  0.74185551  0.24568234     0.13100
H4472       H  0.06842258  0.74335873  0.26296681     0.12700
H4473       H  0.94645847  0.74347601  0.25936372     0.12200
H4474       H  0.95457258  0.74195327  0.24213726     0.12400
H4475       H  0.97440261  0.73768972  0.27556506     0.15200
H4476       H  0.04912469  0.76084959  0.27650369     0.13900
H4477       H  0.04778646  0.73429140  0.22948323     0.11600
H4478       H  0.97386523  0.75805616  0.22848349     0.13600
C4479       C  0.98989642  0.85897577  0.31147155     0.19700
C4480       C  0.97756411  0.86882058  0.30326961    -0.18400
C4481       C  0.96294950  0.88782797  0.30383091    -0.10700
C4482       C  0.96091226  0.89757074  0.31263569     0.22000
C4483       C  0.97375698  0.88779002  0.32081067    -0.20000
C4484       C  0.98831562  0.86880353  0.32024772    -0.10800
C4485       C  0.94553951  0.91779262  0.31362898    -0.15000
C4486       C  0.94465518  0.93080378  0.30643823    -0.28900
C4487       C  0.00253680  0.83823188  0.31072476    -0.03100
C4488       C  0.99618995  0.82533853  0.31776915    -0.39700
H4489       H  0.97822315  0.86156865  0.29643499     0.13100
H4490       H  0.95255680  0.89458290  0.29737990     0.12700
H4491       H  0.97276483  0.89492796  0.32767196     0.12200
H4492       H  0.99840887  0.86190307  0.32670076     0.12400
H4493       H  0.93713173  0.92256708  0.32068970     0.15200
H4494       H  0.95545374  0.92676695  0.29949025     0.13900
H4495       H  0.01281778  0.83295026  0.30390993     0.11600
H4496       H  0.98206311  0.83020207  0.32420932     0.13600
C4497       C  0.93742398  0.74025829  0.38686159     0.19700
C4498       C  0.94594673  0.75694758  0.38147087    -0.18400
C4499       C  0.95928145  0.75527990  0.37215430    -0.10700
C4500       C  0.96388258  0.73680912  0.36793607     0.22000
C4501       C  0.95559813  0.72007460  0.37331443    -0.20000
C4502       C  0.94214275  0.72173879  0.38265736    -0.10800
C4503       C  0.97690114  0.73481691  0.35792402    -0.15000
C4504       C  0.96679659  0.74797815  0.35130432    -0.28900
C4505       C  0.92422152  0.74288840  0.39683743    -0.03100
C4506       C  0.92842274  0.72915596  0.40360285    -0.39700
H4507       H  0.94282621  0.77136240  0.38453155     0.13100
H4508       H  0.96641350  0.76849795  0.36830967     0.12700
H4509       H  0.95880161  0.70570519  0.37021278     0.12200
H4510       H  0.93501150  0.70850600  0.38647155     0.12400
H4511       H  0.99321586  0.72201148  0.35589181     0.15200
H4512       H  0.94800043  0.75989841  0.35327428     0.13900
H4513       H  0.91351764  0.75718347  0.39885578     0.11600
H4514       H  0.94133788  0.71522739  0.40187092     0.13600
C4515       C  0.51284290  0.73820953  0.23977576     0.19700
C4516       C  0.54377747  0.73486578  0.24586660    -0.18400
C4517       C  0.53969443  0.73674622  0.25572589    -0.10700
C4518       C  0.50420267  0.74170793  0.25972734     0.22000
C4519       C  0.47316402  0.74473696  0.25362352    -0.20000
C4520       C  0.47726356  0.74287432  0.24378149    -0.10800
C4521       C  0.49833451  0.74436085  0.27014233    -0.15000
C4522       C  0.52200781  0.73734431  0.27685747    -0.28900
C4523       C  0.51867299  0.73683369  0.22931454    -0.03100
C4524       C  0.49731962  0.74688641  0.22305657    -0.39700
H4525       H  0.57145582  0.73122634  0.24297006     0.13100
H4526       H  0.56465060  0.73470940  0.26010275     0.12700
H4527       H  0.44548361  0.74847740  0.25648889     0.12200
H4528       H  0.45236937  0.74492858  0.23937133     0.12400
H4529       H  0.47279422  0.75204497  0.27237810     0.15200
H4530       H  0.54697646  0.72899877  0.27487389     0.13900
H4531       H  0.54243379  0.72817721  0.22673181     0.11600
H4532       H  0.47486572  0.75643182  0.22558570     0.13600
C4533       C  0.45316118  0.85291038  0.31352739     0.19700
C4534       C  0.44998998  0.86542566  0.32137517    -0.18400
C4535       C  0.43767401  0.88473550  0.32023489    -0.10700
C4536       C  0.42867918  0.89214909  0.31115111     0.22000
C4537       C  0.43124966  0.87958037  0.30331833    -0.20000
C4538       C  0.44365984  0.86026343  0.30445119    -0.10800
C4539       C  0.41757176  0.91297642  0.30960288    -0.15000
C4540       C  0.43069554  0.92736785  0.31520046    -0.28900
C4541       C  0.46697831  0.83250813  0.31510763    -0.03100
C4542       C  0.46097077  0.81788089  0.30891149    -0.39700
H4543       H  0.45689011  0.86020891  0.32844629     0.13100
H4544       H  0.43501435  0.89374656  0.32650620     0.12700
H4545       H  0.42461717  0.88488544  0.29624735     0.12200
H4546       H  0.44653934  0.85140636  0.29814508     0.12400
H4547       H  0.40106567  0.91670726  0.30332427     0.15200
H4548       H  0.44971755  0.92374711  0.32102367     0.13900
H4549       H  0.48125961  0.82925942  0.32178021     0.11600
H4550       H  0.44501678  0.82058169  0.30244580     0.13600
C4551       C  0.78916701  0.76048425  0.31398879     0.19700
C4552       C  0.76673475  0.76693187  0.32164977    -0.18400
C4553       C  0.72691341  0.76728151  0.32099564    -0.10700
C4554       C  0.70868858  0.76136709  0.31257649     0.22000
C4555       C  0.73125967  0.75547717  0.30483934    -0.20000
C4556       C  0.77094914  0.75508566  0.30550175    -0.10800
C4557       C  0.66657807  0.75955715  0.31166293    -0.15000
C4558       C  0.64036472  0.76663622  0.31780150    -0.28900
C4559       C  0.83133947  0.76003975  0.31506061    -0.03100
C4560       C  0.85485587  0.74889453  0.30974422    -0.39700
H4561       H  0.78006090  0.77134002  0.32824940     0.13100
H4562       H  0.71074303  0.77168112  0.32716881     0.12700
H4563       H  0.71807151  0.75091796  0.29824583     0.12200
H4564       H  0.78710562  0.75066512  0.29932530     0.12400
H4565       H  0.65660635  0.75129277  0.30556288     0.15200
H4566       H  0.64871629  0.77561569  0.32378474     0.13900
H4567       H  0.84340421  0.76883518  0.32073211     0.11600
H4568       H  0.84348291  0.73917845  0.30437093     0.13600
C4569       C  0.21259714  0.74249408  0.31548260     0.19700
C4570       C  0.23152948  0.73651045  0.30719438    -0.18400
C4571       C  0.26993747  0.73111837  0.30743008    -0.10700
C4572       C  0.29073680  0.73195038  0.31597379     0.22000
C4573       C  0.27157150  0.73748960  0.32432529    -0.20000
C4574       C  0.23298064  0.74277228  0.32409949    -0.10800
C4575       C  0.33261223  0.72811880  0.31635838    -0.15000
C4576       C  0.35575539  0.73084896  0.30881978    -0.28900
C4577       C  0.17184752  0.74844794  0.31475059    -0.03100
C4578       C  0.14671476  0.74695316  0.32194999    -0.39700
H4579       H  0.21644671  0.73592268  0.30048381     0.13100
H4580       H  0.28312025  0.72634444  0.30088738     0.12700
H4581       H  0.28680038  0.73828241  0.33100886     0.12200
H4582       H  0.21958433  0.74754358  0.33061991     0.12400
H4583       H  0.34537034  0.72545693  0.32328206     0.15200
H4584       H  0.34383809  0.73543646  0.30206205     0.13900
H4585       H  0.16129726  0.75246328  0.30774690     0.11600
H4586       H  0.15587308  0.74128039  0.32878870     0.13600
C4587       C  0.44042182  0.75493716  0.38508176     0.19700
C4588       C  0.41467625  0.75681599  0.37751642    -0.18400
C4589       C  0.42773654  0.75730154  0.36810461    -0.10700
C4590       C  0.46695962  0.75644288  0.36609513     0.22000
C4591       C  0.49277985  0.75528707  0.37367754    -0.20000
C4592       C  0.47967444  0.75431198  0.38307803    -0.10800
C4593       C  0.48135784  0.75702765  0.35614842    -0.15000
C4594       C  0.46407407  0.74701066  0.34917576    -0.28900
C4595       C  0.42594615  0.75420856  0.39501746    -0.03100
C4596       C  0.44177588  0.74254365  0.40163001    -0.39700
H4597       H  0.38437254  0.75760495  0.37888922     0.13100
H4598       H  0.40719823  0.75863981  0.36240220     0.12700
H4599       H  0.52311323  0.75483018  0.37231083     0.12200
H4600       H  0.50027514  0.75338590  0.38878442     0.12400
H4601       H  0.50762759  0.76483452  0.35465509     0.15200
H4602       H  0.43980022  0.73783399  0.35093037     0.13900
H4603       H  0.40113847  0.76291686  0.39682566     0.11600
H4604       H  0.46492835  0.73290062  0.39959044     0.13600
C4605       C  0.77232183  0.50088943  0.50918710     0.19700
C4606       C  0.79476541  0.48923161  0.50321001    -0.18400
C4607       C  0.79071118  0.49018994  0.49333434    -0.10700
C4608       C  0.76361584  0.50272724  0.48917568     0.22000
C4609       C  0.74153322  0.51459856  0.49512624    -0.20000
C4610       C  0.74552813  0.51362024  0.50501640    -0.10800
C4611       C  0.75837405  0.50415922  0.47869188    -0.15000
C4612       C  0.76773294  0.48963888  0.47271082    -0.28900
C4613       C  0.77700880  0.49872839  0.51967099    -0.03100
C4614       C  0.76298641  0.51136614  0.52609444    -0.39700
H4615       H  0.81571108  0.47935848  0.50619518     0.13100
H4616       H  0.80932551  0.48128965  0.48902106     0.12700
H4617       H  0.72062093  0.52445303  0.49211361     0.12200
H4618       H  0.72695369  0.52259900  0.50928604     0.12400
H4619       H  0.74595165  0.51746879  0.47583365     0.15200
H4620       H  0.77870363  0.47596110  0.47548606     0.13900
H4621       H  0.79285802  0.48611936  0.52220738     0.11600
H4622       H  0.74802177  0.52439173  0.52381762     0.13600
C4623       C  0.68905795  0.34802536  0.43101386     0.19700
C4624       C  0.72581330  0.35558680  0.42969171    -0.18400
C4625       C  0.73201671  0.37574305  0.42946427    -0.10700
C4626       C  0.70138924  0.38880955  0.43043320     0.22000
C4627       C  0.66441902  0.38127761  0.43138577    -0.20000
C4628       C  0.65825997  0.36107644  0.43174796    -0.10800
C4629       C  0.70725957  0.41029779  0.43036899    -0.15000
C4630       C  0.73859606  0.41860685  0.43407255    -0.28900
C4631       C  0.68399153  0.32648791  0.43128809    -0.03100
C4632       C  0.65571752  0.31745949  0.43605937    -0.39700
H4633       H  0.74991544  0.34584503  0.42893649     0.13100
H4634       H  0.76073791  0.38105192  0.42841097     0.12700
H4635       H  0.64031600  0.39105935  0.43199287     0.12200
H4636       H  0.62939590  0.35575428  0.43245945     0.12400
H4637       H  0.68429185  0.41951871  0.42778555     0.15200
H4638       H  0.76021034  0.40950889  0.43737553     0.13900
H4639       H  0.70562574  0.31769111  0.42780681     0.11600
H4640       H  0.63505900  0.32594719  0.44003166     0.13600
C4641       C  0.84982831  0.63716554  0.44065544     0.19700
C4642       C  0.83973405  0.62706418  0.43237414    -0.18400
C4643       C  0.82136170  0.60899124  0.43289068    -0.10700
C4644       C  0.81330591  0.60026063  0.44174939     0.22000
C4645       C  0.82268488  0.61052874  0.45006101    -0.20000
C4646       C  0.84091290  0.62874922  0.44954150    -0.10800
C4647       C  0.79597206  0.58037056  0.44246876    -0.15000
C4648       C  0.80131466  0.56683894  0.43566882    -0.28900
C4649       C  0.86969774  0.65630480  0.43964696    -0.03100
C4650       C  0.86807616  0.67050052  0.44622328    -0.39700
H4651       H  0.84579725  0.63327704  0.42544316     0.13100
H4652       H  0.81334284  0.60199955  0.42630290     0.12700
H4653       H  0.81673704  0.60421961  0.45697551     0.12200
H4654       H  0.84872193  0.63591747  0.45610030     0.12400
H4655       H  0.78099894  0.57635640  0.44894859     0.15200
H4656       H  0.81897136  0.57036654  0.42956830     0.13900
H4657       H  0.88350643  0.65943714  0.43289201     0.11600
H4658       H  0.85181423  0.66825914  0.45269683     0.13600
C4659       C  0.26554200  0.48366774  0.50846659     0.19700
C4660       C  0.29474859  0.47707781  0.50247556    -0.18400
C4661       C  0.28986675  0.47694628  0.49260647    -0.10700
C4662       C  0.25533953  0.48313549  0.48853855     0.22000
C4663       C  0.22554708  0.48894699  0.49453996    -0.20000
C4664       C  0.23061667  0.48936342  0.50440777    -0.10800
C4665       C  0.24963482  0.48346348  0.47807931    -0.15000
C4666       C  0.27775227  0.48834863  0.47202811    -0.28900
C4667       C  0.27215738  0.48405648  0.51890070    -0.03100
C4668       C  0.25519049  0.49705393  0.52466675    -0.39700
H4669       H  0.32165105  0.47229743  0.50543570     0.13100
H4670       H  0.31298499  0.47182138  0.48817535     0.12700
H4671       H  0.19849867  0.49348171  0.49157185     0.12200
H4672       H  0.20701529  0.49389513  0.50882835     0.12400
H4673       H  0.22112940  0.48093003  0.47534740     0.15200
H4674       H  0.30544052  0.49248925  0.47480562     0.13900
H4675       H  0.29301714  0.47399846  0.52183830     0.11600
H4676       H  0.23611402  0.50795603  0.52170603     0.13600
C4677       C  0.18545279  0.34764076  0.43753055     0.19700
C4678       C  0.21927627  0.35474307  0.43345294    -0.18400
C4679       C  0.22880184  0.37453834  0.43394580    -0.10700
C4680       C  0.20441467  0.38789116  0.43847866     0.22000
C4681       C  0.17066674  0.38080820  0.44261181    -0.20000
C4682       C  0.16111955  0.36096258  0.44212425    -0.10800
C4683       C  0.21325324  0.40915724  0.43920041    -0.15000
C4684       C  0.23875853  0.41855190  0.43364968    -0.28900
C4685       C  0.17763019  0.32626245  0.43688098    -0.03100
C4686       C  0.14902036  0.31672145  0.44132001    -0.39700
H4687       H  0.23878249  0.34486109  0.42993473     0.13100
H4688       H  0.25560003  0.37911855  0.43089605     0.12700
H4689       H  0.15139685  0.39071984  0.44618872     0.12200
H4690       H  0.13467888  0.35631755  0.44533142     0.12400
H4691       H  0.19688224  0.41759779  0.44430122     0.15200
H4692       H  0.25429540  0.41073957  0.42819561     0.13900
H4693       H  0.19781621  0.31772169  0.43276436     0.11600
H4694       H  0.12859822  0.32449039  0.44566650     0.13600
C4695       C  0.97329827  0.49253101  0.43586814     0.19700
C4696       C  0.99432169  0.50985456  0.43512446    -0.18400
C4697       C  0.03298178  0.51014052  0.43735356    -0.10700
C4698       C  0.05169287  0.49289671  0.44018234     0.22000
C4699       C  0.03051486  0.47562723  0.44107699    -0.20000
C4700       C  0.99175944  0.47536503  0.43888904    -0.10800
C4701       C  0.09336173  0.49205796  0.44182764    -0.15000
C4702       C  0.11765663  0.50511597  0.43807075    -0.28900
C4703       C  0.93221332  0.49312636  0.43353268    -0.03100
C4704       C  0.90687761  0.48043423  0.43713683    -0.39700
H4705       H  0.98066424  0.52330299  0.43290991     0.13100
H4706       H  0.04778082  0.52394243  0.43688001     0.12700
H4707       H  0.04422475  0.46215236  0.44322950     0.12200
H4708       H  0.97676960  0.46160754  0.43936939     0.12400
H4709       H  0.10468923  0.47926481  0.44543959     0.15200
H4710       H  0.10725252  0.51743916  0.43398204     0.13900
H4711       H  0.92199984  0.50547742  0.42938425     0.11600
H4712       H  0.91601556  0.46876974  0.44183965     0.13600
C4713       C  0.55271342  0.49588661  0.43322567     0.19700
C4714       C  0.53174613  0.47982006  0.42990538    -0.18400
C4715       C  0.49200256  0.47982976  0.43024316    -0.10700
C4716       C  0.47235843  0.49610084  0.43383069     0.22000
C4717       C  0.49331867  0.51228098  0.43701498    -0.20000
C4718       C  0.53305618  0.51226439  0.43668313    -0.10800
C4719       C  0.43033087  0.49659603  0.43480887    -0.15000
C4720       C  0.40599744  0.48471956  0.43018512    -0.28900
C4721       C  0.59485909  0.49491883  0.43280129    -0.03100
C4722       C  0.61866727  0.50627825  0.43790038    -0.39700
H4723       H  0.54622108  0.46703158  0.42718147     0.13100
H4724       H  0.47706075  0.46690911  0.42790111     0.12700
H4725       H  0.47885206  0.52503040  0.43978412     0.12200
H4726       H  0.54802898  0.52514781  0.43906160     0.12400
H4727       H  0.41879323  0.50776298  0.43947392     0.15200
H4728       H  0.41619476  0.47410069  0.42507900     0.13900
H4729       H  0.60683950  0.48360282  0.42829494     0.11600
H4730       H  0.60780276  0.51721766  0.44275378     0.13600
C4731       C  0.34789306  0.63781702  0.44099051     0.19700
C4732       C  0.30972527  0.63169855  0.44112805    -0.18400
C4733       C  0.30042759  0.61180911  0.44092100    -0.10700
C4734       C  0.32925411  0.59754736  0.44068867     0.22000
C4735       C  0.36741069  0.60365801  0.44076329    -0.20000
C4736       C  0.37670541  0.62354863  0.44085124    -0.10800
C4737       C  0.32063827  0.57623954  0.44071522    -0.15000
C4738       C  0.28875317  0.56859816  0.43691925    -0.28900
C4739       C  0.35654015  0.65910047  0.44140851    -0.03100
C4740       C  0.38861449  0.66713686  0.43786421    -0.39700
H4741       H  0.28698123  0.64236609  0.44138077     0.13100
H4742       H  0.27071529  0.60767368  0.44116065     0.12700
H4743       H  0.39015702  0.59297994  0.44072526     0.12200
H4744       H  0.40643447  0.62764964  0.44103534     0.12400
H4745       H  0.34222569  0.56643422  0.44352500     0.15200
H4746       H  0.26816235  0.57809573  0.43348709     0.13900
H4747       H  0.33483042  0.66861812  0.44437256     0.11600
H4748       H  0.40939855  0.65805697  0.43426261     0.13600
C4749       C  0.66276126  0.50443321  0.25762732     0.19700
C4750       C  0.69042933  0.49843978  0.25106553    -0.18400
C4751       C  0.68303885  0.49892509  0.24128925    -0.10700
C4752       C  0.64733775  0.50510436  0.23783092     0.22000
C4753       C  0.61982872  0.51133736  0.24438453    -0.20000
C4754       C  0.62723054  0.51086996  0.25416338    -0.10800
C4755       C  0.63808476  0.50552493  0.22747769    -0.15000
C4756       C  0.65602367  0.49421487  0.22108033    -0.28900
C4757       C  0.67138895  0.50310008  0.26799704    -0.03100
C4758       C  0.65323827  0.51391726  0.27454769    -0.39700
H4759       H  0.71802776  0.49348223  0.25351245     0.13100
H4760       H  0.70562991  0.49467081  0.23650241     0.12700
H4761       H  0.59218396  0.51622913  0.24193841     0.12200
H4762       H  0.60461942  0.51510109  0.25894979     0.12400
H4763       H  0.61542469  0.51515700  0.22508833     0.15200
H4764       H  0.67770611  0.48400912  0.22341857     0.13900
H4765       H  0.69352231  0.49304928  0.27028282     0.11600
H4766       H  0.63229344  0.52461761  0.27231141     0.13600
C4767       C  0.73113750  0.36174587  0.30703628     0.19700
C4768       C  0.69502709  0.36929939  0.30484552    -0.18400
C4769       C  0.68889961  0.38949061  0.30444997    -0.10700
C4770       C  0.71903363  0.40258746  0.30608787     0.22000
C4771       C  0.75542296  0.39504411  0.30796558    -0.20000
C4772       C  0.76142132  0.37484852  0.30851595    -0.10800
C4773       C  0.71353274  0.42412459  0.30573967    -0.15000
C4774       C  0.68112076  0.43281832  0.30858847    -0.28900
C4775       C  0.73645576  0.34018351  0.30740452    -0.03100
C4776       C  0.76240068  0.33135523  0.31300986    -0.39700
H4777       H  0.67136625  0.35952868  0.30352542     0.13100
H4778       H  0.66072306  0.39480277  0.30271892     0.12700
H4779       H  0.77920457  0.40482518  0.30912422     0.12200
H4780       H  0.78988448  0.36955583  0.30992964     0.12400
H4781       H  0.73778314  0.43313758  0.30377676     0.15200
H4782       H  0.65790448  0.42399261  0.31135002     0.13900
H4783       H  0.71700740  0.33123787  0.30327616     0.11600
H4784       H  0.78022083  0.34005101  0.31767159     0.13600
C4785       C  0.56412644  0.64310712  0.32492223     0.19700
C4786       C  0.54807188  0.62486745  0.32290134    -0.18400
C4787       C  0.57086542  0.60811300  0.32274479    -0.10700
C4788       C  0.61001200  0.60921382  0.32483543     0.22000
C4789       C  0.62552530  0.62720533  0.32755005    -0.20000
C4790       C  0.60288606  0.64407962  0.32748572    -0.10800
C4791       C  0.63463206  0.59168318  0.32378410    -0.15000
C4792       C  0.63279361  0.58116958  0.31575099    -0.28900
C4793       C  0.54080839  0.66107720  0.32370577    -0.03100
C4794       C  0.55502652  0.67645638  0.31895124    -0.39700
H4795       H  0.51828580  0.62372621  0.32099451     0.13100
H4796       H  0.55806984  0.59428563  0.32081785     0.12700
H4797       H  0.65545581  0.62834381  0.32930473     0.12200
H4798       H  0.61579267  0.65795842  0.32926714     0.12400
H4799       H  0.65276467  0.58712784  0.32963318     0.15200
H4800       H  0.61482753  0.58657024  0.31001854     0.13900
H4801       H  0.51126850  0.66108035  0.32599115     0.11600
H4802       H  0.58385557  0.67547378  0.31616994     0.13600
C4803       C  0.71813705  0.49766753  0.38371376     0.19700
C4804       C  0.68852932  0.48803058  0.37893601    -0.18400
C4805       C  0.68214096  0.49121354  0.36923024    -0.10700
C4806       C  0.70540234  0.50418526  0.36403182     0.22000
C4807       C  0.73453824  0.51408573  0.36885588    -0.20000
C4808       C  0.74087801  0.51092891  0.37855900    -0.10800
C4809       C  0.69997862  0.50821977  0.35368378    -0.15000
C4810       C  0.67897232  0.49700269  0.34783765    -0.28900
C4811       C  0.72309069  0.49411036  0.39411105    -0.03100
C4812       C  0.75452390  0.49901889  0.39905528    -0.39700
H4813       H  0.67011401  0.47800336  0.38274221     0.13100
H4814       H  0.65856531  0.48368367  0.36594787     0.12700
H4815       H  0.75254368  0.52437672  0.36509527     0.12200
H4816       H  0.76315775  0.51923940  0.38195889     0.12400
H4817       H  0.71487657  0.52072403  0.35069344     0.15200
H4818       H  0.66470847  0.48408010  0.35051393     0.13900
H4819       H  0.69971330  0.48707846  0.39785570     0.11600
H4820       H  0.77876516  0.50555416  0.39549738     0.13600
C4821       C  0.14596895  0.50535648  0.23793699     0.19700
C4822       C  0.17649572  0.51150890  0.24361915    -0.18400
C4823       C  0.17261050  0.51278446  0.25349948    -0.10700
C4824       C  0.13776102  0.50825529  0.25793176     0.22000
C4825       C  0.10681728  0.50269960  0.25223310    -0.20000
C4826       C  0.11092349  0.50105881  0.24233724    -0.10800
C4827       C  0.13329611  0.50940847  0.26845989    -0.15000
C4828       C  0.16151118  0.50386071  0.27432804    -0.28900
C4829       C  0.15112841  0.50474057  0.22743156    -0.03100
C4830       C  0.13251832  0.49225199  0.22167472    -0.39700
H4831       H  0.20356822  0.51524396  0.24039886     0.13100
H4832       H  0.19675620  0.51762890  0.25765232     0.12700
H4833       H  0.07956764  0.49937597  0.25546127     0.12200
H4834       H  0.08646885  0.49685127  0.23813861     0.12400
H4835       H  0.10605027  0.51386455  0.27139554     0.15200
H4836       H  0.18748161  0.49794888  0.27127584     0.13900
H4837       H  0.17198379  0.51465009  0.22436224     0.11600
H4838       H  0.11320097  0.48151552  0.22469264     0.13600
C4839       C  0.22049497  0.35854347  0.31746673     0.19700
C4840       C  0.20003637  0.36736315  0.31004138    -0.18400
C4841       C  0.18956097  0.38701628  0.31051407    -0.10700
C4842       C  0.19901776  0.39833497  0.31849943     0.22000
C4843       C  0.21865797  0.38944400  0.32605141    -0.20000
C4844       C  0.22953523  0.36976629  0.32553585    -0.10800
C4845       C  0.18836129  0.41933266  0.31910667    -0.15000
C4846       C  0.18757741  0.43090757  0.31136986    -0.28900
C4847       C  0.22986086  0.33741419  0.31666728    -0.03100
C4848       C  0.25804496  0.32841688  0.32148688    -0.39700
H4849       H  0.19212143  0.35899525  0.30382057     0.13100
H4850       H  0.17347269  0.39321921  0.30468192     0.12700
H4851       H  0.22588540  0.39779667  0.33232706     0.12200
H4852       H  0.24423326  0.36335777  0.33153438     0.12400
H4853       H  0.18388973  0.42571556  0.32608586     0.15200
H4854       H  0.19592354  0.42500374  0.30451844     0.13900
H4855       H  0.21298249  0.32893023  0.31168918     0.11600
H4856       H  0.27627391  0.33664228  0.32624221     0.13600
C4857       C  0.87726678  0.51912450  0.31549573     0.19700
C4858       C  0.89929030  0.51196787  0.32307971    -0.18400
C4859       C  0.93865250  0.50917274  0.32201896    -0.10700
C4860       C  0.95672200  0.51374479  0.31335175     0.22000
C4861       C  0.93480325  0.52162218  0.30593289    -0.20000
C4862       C  0.89562660  0.52425861  0.30696653    -0.10800
C4863       C  0.99840636  0.51161103  0.31177701    -0.15000
C4864       C  0.02209143  0.50037148  0.31700421    -0.28900
C4865       C  0.83517188  0.52064538  0.31650406    -0.03100
C4866       C  0.81177626  0.51711613  0.30912972    -0.39700
H4867       H  0.88587565  0.50814786  0.32976805     0.13100
H4868       H  0.95470776  0.50367205  0.32801071     0.12700
H4869       H  0.94803772  0.52566514  0.29925020     0.12200
H4870       H  0.87979107  0.53040986  0.30107798     0.12400
H4871       H  0.01018302  0.51979414  0.30582968     0.15200
H4872       H  0.01132954  0.49162341  0.32285739     0.13900
H4873       H  0.82319336  0.52275713  0.32355321     0.11600
H4874       H  0.82381147  0.51299694  0.30230860     0.13600
C4875       C  0.37708358  0.52205563  0.31194926     0.19700
C4876       C  0.40021870  0.51944720  0.31997555    -0.18400
C4877       C  0.43950708  0.51689489  0.31895388    -0.10700
C4878       C  0.45628157  0.51721340  0.30987199     0.22000
C4879       C  0.43335173  0.52066628  0.30189466    -0.20000
C4880       C  0.39409358  0.52295019  0.30290093    -0.10800
C4881       C  0.49782108  0.51518762  0.30852248    -0.15000
C4882       C  0.52002541  0.50414990  0.31417945    -0.28900
C4883       C  0.33523761  0.52322314  0.31313646    -0.03100
C4884       C  0.31162995  0.51516966  0.30675501    -0.39700
H4885       H  0.38775863  0.51895841  0.32702050     0.13100
H4886       H  0.45671528  0.51496349  0.32526782     0.12700
H4887       H  0.44582158  0.52139331  0.29485359     0.12200
H4888       H  0.37713177  0.52552425  0.29659771     0.12400
H4889       H  0.51042134  0.52287052  0.30252201     0.15200
H4890       H  0.50755064  0.49549748  0.31986394     0.13900
H4891       H  0.32383909  0.52894755  0.31975310     0.11600
H4892       H  0.32327586  0.50771294  0.30059726     0.13600
C4893       C  0.06208411  0.64607231  0.31416230     0.19700
C4894       C  0.09971974  0.64118363  0.31651417    -0.18400
C4895       C  0.11400384  0.62247539  0.31477961    -0.10700
C4896       C  0.09066484  0.60794577  0.31076783     0.22000
C4897       C  0.05299153  0.61288021  0.30836086    -0.20000
C4898       C  0.03876468  0.63169271  0.31004268    -0.10800
C4899       C  0.10413729  0.58754482  0.30904391    -0.15000
C4900       C  0.13648906  0.57994913  0.31268957    -0.28900
C4901       C  0.04858278  0.66621954  0.31628895    -0.03100
C4902       C  0.01903536  0.67505927  0.31192921    -0.39700
H4903       H  0.11839225  0.65198880  0.31964976     0.13100
H4904       H  0.14340404  0.61970291  0.31655555     0.12700
H4905       H  0.03427455  0.60204563  0.30526951     0.12200
H4906       H  0.00939732  0.63473355  0.30827987     0.12400
H4907       H  0.08554425  0.57804956  0.30496002     0.15200
H4908       H  0.15492326  0.58868974  0.31714205     0.13900
H4909       H  0.06558631  0.67467106  0.32125492     0.11600
H4910       H  0.00299119  0.66747014  0.30648426     0.13600
C4911       C  0.23131774  0.48866542  0.38243665     0.19700
C4912       C  0.25555160  0.49266006  0.37475765    -0.18400
C4913       C  0.24084168  0.49454957  0.36554530    -0.10700
C4914       C  0.20166017  0.49198372  0.36382101     0.22000
C4915       C  0.17767544  0.48730719  0.37147653    -0.20000
C4916       C  0.19224103  0.48594334  0.38072364    -0.10800
C4917       C  0.18563688  0.49325638  0.35404775    -0.15000
C4918       C  0.19881080  0.50609500  0.34757763    -0.28900
C4919       C  0.24695823  0.48739046  0.39221695    -0.03100
C4920       C  0.23099833  0.49749514  0.39934627    -0.39700
H4921       H  0.28578029  0.49465025  0.37591943     0.13100
H4922       H  0.26026446  0.49762400  0.35975304     0.12700
H4923       H  0.14753908  0.48497753  0.37031247     0.12200
H4924       H  0.17308665  0.48254364  0.38653504     0.12400
H4925       H  0.16224324  0.48360683  0.35219709     0.15200
H4926       H  0.22063583  0.51649518  0.34964303     0.13900
H4927       H  0.27261906  0.47891273  0.39345621     0.11600
H4928       H  0.20709312  0.50705251  0.39776887     0.13600
loop_ 
_geom_bond_atom_site_label_1 
_geom_bond_atom_site_label_2 
_geom_bond_distance 
_geom_bond_site_symmetry_2 
_ccdc_geom_bond_type 
Zn1           O5   1.965       .  S
Zn1           O6   2.014       .  S
Zn1          O10   2.028       .  S
Zn1          O17   2.031       .  S
Zn2           O5   1.982       .  S
Zn2           O7   2.051       .  S
Zn2           O9   2.043       .  S
Zn2          O13   2.053       .  S
Zn3           O5   1.970       .  S
Zn3           O8   2.027       .  S
Zn3          O11   2.004       .  S
Zn3          O14   2.066       .  S
Zn4           O5   1.940       .  S
Zn4          O12   1.993       .  S
Zn4          O15   1.997       .  S
Zn4          O16   1.988       .  S
O6           C18   1.272       .  A
O7           C19   1.278       .  A
O8           C20   1.275       .  A
O9           C18   1.276       .  A
O10          C20   1.275       .  A
O11          C19   1.275       .  A
O12          C21   1.269       .  A
O13          C22   1.277       .  A
O14          C21   1.277       .  A
O15          C22   1.270       .  A
O16          C23   1.269       .  A
O17          C23   1.275       .  A
C18        C4918   1.480       .  S
C19        C4864   1.484       .  S
C20        C4900   1.481       .  S
C21        C4828   1.480       .  S
C22        C4846   1.475       .  S
C23        C4884   1.469       .  S
Zn24         O28   1.986       .  S
Zn24         O29   2.036       .  S
Zn24         O33   2.080       .  S
Zn24         O40   2.056       .  S
Zn25         O28   1.962       .  S
Zn25         O30   2.025       .  S
Zn25         O32   2.013       .  S
Zn25         O36   2.020       .  S
Zn26         O28   1.938       .  S
Zn26         O31   1.975       .  S
Zn26         O34   1.989       .  S
Zn26         O37   1.990       .  S
Zn27         O28   1.965       .  S
Zn27         O35   2.056       .  S
Zn27         O38   2.038       .  S
Zn27         O39   2.008       .  S
O29          C41   1.276       .  A
O30          C42   1.272       .  A
O31          C43   1.268       .  A
O32          C41   1.272       .  A
O33          C43   1.280       .  A
O34          C42   1.270       .  A
O35          C44   1.277       .  A
O36          C45   1.273       .  A
O37          C44   1.268       .  A
O38          C45   1.276       .  A
O39          C46   1.274       .  A
O40          C46   1.280       .  A
C41        C4810   1.480       .  S
C42        C4882   1.474       .  S
C43        C4792   1.477       .  S
C44        C4758   1.478       .  S
C45        C4774   1.479       .  S
C46        C4866   1.475       .  S
Zn47         O51   1.969       .  S
Zn47         O52   2.023       .  S
Zn47         O56   2.015       .  S
Zn47         O63   2.031       .  S
Zn48         O51   1.977       .  S
Zn48         O53   2.051       .  S
Zn48         O55   2.034       .  S
Zn48         O59   2.037       .  S
Zn49         O51   1.951       .  S
Zn49         O54   1.989       .  S
Zn49         O57   2.002       .  S
Zn49         O60   2.021       .  S
Zn50         O51   1.953       .  S
Zn50         O58   2.032       .  S
Zn50         O61   1.991       .  S
Zn50         O62   2.018       .  S
O52          C64   1.275       .  A
O53          C65   1.277       .  A
O54          C66   1.269       .  A
O55          C64   1.275       .  A
O56          C66   1.274       .  A
O57          C65   1.271       .  A
O58          C67   1.274       .  A
O59          C68   1.276       .  A
O60          C67   1.272       .  A
O61          C68   1.273       .  A
O62          C69   1.273       .  A
O63          C69   1.275       .  A
C64        C4684   1.481       .  S
C65        C4920   1.478       .  S
C66        C4702   1.468       .  S
C67        C4738   1.481       .  S
C68        C4720   1.477       .  S
C69        C4666   1.477       .  S
Zn70         O74   1.950       .  S
Zn70         O75   2.014       .  S
Zn70         O79   1.996       .  S
Zn70         O86   2.021       .  S
Zn71         O74   1.950       .  S
Zn71         O76   2.000       .  S
Zn71         O78   1.993       .  S
Zn71         O82   2.006       .  S
Zn72         O74   1.986       .  S
Zn72         O77   2.063       .  S
Zn72         O80   2.041       .  S
Zn72         O83   2.047       .  S
Zn73         O74   1.956       .  S
Zn73         O81   1.985       .  S
Zn73         O84   2.033       .  S
Zn73         O85   2.024       .  S
O75          C87   1.274       .  A
O76          C88   1.271       .  A
O77          C89   1.278       .  A
O78          C87   1.269       .  A
O79          C89   1.270       .  A
O80          C88   1.277       .  A
O81          C90   1.272       .  A
O82          C91   1.270       .  A
O83          C90   1.278       .  A
O84          C91   1.274       .  A
O85          C92   1.274       .  A
O86          C92   1.273       .  A
C87        C4704   1.469       .  S
C88        C4612   1.476       .  S
C89        C4648   1.479       .  S
C90        C4722   1.478       .  S
C91        C4630   1.476       .  S
C92        C4812   1.479       .  S
Zn93         O97   1.979       .  S
Zn93         O98   2.075       .  S
Zn93        O102   2.056       .  S
Zn93        O109   2.006       .  S
Zn94         O97   1.940       .  S
Zn94         O99   2.013       .  S
Zn94        O101   1.984       .  S
Zn94        O105   1.986       .  S
Zn95         O97   1.953       .  S
Zn95        O100   2.003       .  S
Zn95        O103   2.029       .  S
Zn95        O106   2.004       .  S
Zn96         O97   1.989       .  S
Zn96        O104   2.058       .  S
Zn96        O107   2.064       .  S
Zn96        O108   2.059       .  S
O98         C110   1.280       .  A
O99         C111   1.271       .  A
O100        C112   1.272       .  A
O101        C110   1.269       .  A
O102        C112   1.278       .  A
O103        C111   1.274       .  A
O104        C113   1.279       .  A
O105        C114   1.271       .  A
O106        C113   1.272       .  A
O107        C114   1.278       .  A
O108        C115   1.279       .  A
O109        C115   1.272       .  A
C110       C4794   1.479       .  S
C111       C4522   1.479       .  S
C112       C4576   1.478       .  S
C113       C4542   1.481       .  S
C114       C4558   1.486       .  S
C115       C4594   1.479       .  S
Zn116       O120   1.968   1_655  S
Zn116       O121   2.033       .  S
Zn116       O125   2.014       .  S
Zn116       O132   2.043       .  S
Zn117       O120   1.970       .  S
Zn117       O122   2.018       .  S
Zn117       O124   2.022       .  S
Zn117       O128   2.052       .  S
Zn118       O120   1.980       .  S
Zn118       O123   2.033       .  S
Zn118       O126   2.051       .  S
Zn118       O129   2.072       .  S
Zn119       O120   1.938   1_655  S
Zn119       O127   1.981       .  S
Zn119       O130   1.979       .  S
Zn119       O131   2.001       .  S
O121        C133   1.275   1_655  A
O122        C134   1.273       .  A
O123        C135   1.275       .  A
O124        C133   1.275       .  A
O125        C135   1.274   1_655  A
O126        C134   1.279       .  A
O127        C136   1.268       .  A
O128        C137   1.276   1_455  A
O129        C136   1.279   1_455  A
O130        C137   1.268       .  A
O131        C138   1.271       .  A
O132        C138   1.275       .  A
C133       C4902   1.482       .  S
C134       C4578   1.481       .  S
C135       C4468   1.479       .  S
C136       C4488   1.475       .  S
C137       C4504   1.473       .  S
C138       C4560   1.481       .  S
Zn139       O143   1.984       .  S
Zn139       O144   2.037       .  S
Zn139       O148   2.044       .  S
Zn139       O155   2.044       .  S
Zn140       O143   1.958       .  S
Zn140       O145   2.025       .  S
Zn140       O147   1.991       .  S
Zn140       O151   2.036       .  S
Zn141       O143   1.958       .  S
Zn141       O146   2.015       .  S
Zn141       O149   2.031       .  S
Zn141       O152   2.017       .  S
Zn142       O143   1.950       .  S
Zn142       O150   2.005       .  S
Zn142       O153   2.012       .  S
Zn142       O154   1.992       .  S
O144        C156   1.276       .  A
O145        C157   1.275       .  A
O146        C158   1.273       .  A
O147        C156   1.273       .  A
O148        C158   1.277       .  A
O149        C157   1.274       .  A
O150        C159   1.272       .  A
O151        C160   1.275       .  A
O152        C159   1.272       .  A
O153        C160   1.272       .  A
O154        C161   1.269       .  A
O155        C161   1.276       .  A
C156       C4450   1.476       .  S
C157       C4740   1.481       .  S
C158       C4596   1.480       .  S
C159       C4432   1.471       .  S
C160       C4396   1.478       .  S
C161       C4416   1.474       .  S
Zn162       O166   1.938       .  S
Zn162       O167   1.993       .  S
Zn162       O171   2.005       .  S
Zn162       O178   1.981       .  S
Zn163       O166   1.953       .  S
Zn163       O168   1.998   1_655  S
Zn163       O170   2.027       .  S
Zn163       O174   2.005       .  S
Zn164       O166   1.962       .  S
Zn164       O169   2.044       .  S
Zn164       O172   2.031       .  S
Zn164       O175   2.006       .  S
Zn165       O166   1.978       .  S
Zn165       O173   2.041       .  S
Zn165       O176   2.042       .  S
Zn165       O177   2.041       .  S
O167        C179   1.271       .  A
O168        C180   1.273       .  A
O169        C181   1.276       .  A
O170        C179   1.273       .  A
O171        C181   1.270       .  A
O172        C180   1.275   1_655  A
O173        C182   1.278       .  A
O174        C183   1.271       .  A
O175        C182   1.272       .  A
O176        C183   1.276       .  A
O177        C184   1.275       .  A
O178        C184   1.271       .  A
C179       C4360   1.476       .  S
C180       C4452   1.475       .  S
C181       C4650   1.479       .  S
C182       C4506   1.477       .  S
C183       C4378   1.476       .  S
C184       C4434   1.477       .  S
Zn185       O189   1.950       .  S
Zn185       O190   2.011       .  S
Zn185       O194   1.998       .  S
Zn185       O201   2.015       .  S
Zn186       O189   1.972       .  S
Zn186       O191   2.033       .  S
Zn186       O193   2.037       .  S
Zn186       O197   2.032       .  S
Zn187       O189   1.963       .  S
Zn187       O192   2.010       .  S
Zn187       O195   2.019       .  S
Zn187       O198   2.021       .  S
Zn188       O189   1.965       .  S
Zn188       O196   2.029       .  S
Zn188       O199   2.005       .  S
Zn188       O200   2.049       .  S
O190        C202   1.273       .  A
O191        C203   1.274       .  A
O192        C204   1.271       .  A
O193        C202   1.274       .  A
O194        C204   1.272       .  A
O195        C203   1.274       .  A
O196        C205   1.275       .  A
O197        C206   1.276       .  A
O198        C205   1.273       .  A
O199        C206   1.274       .  A
O200        C207   1.277       .  A
O201        C207   1.273       .  A
C202       C4848   1.482       .  S
C203       C4342   1.482       .  S
C204       C4288   1.469       .  S
C205       C4324   1.480       .  S
C206       C4306   1.475       .  S
C207       C4270   1.483       .  S
Zn208       O212   1.946       .  S
Zn208       O213   2.012       .  S
Zn208       O217   1.984       .  S
Zn208       O224   2.001       .  S
Zn209       O212   1.962       .  S
Zn209       O214   2.008       .  S
Zn209       O216   2.046       .  S
Zn209       O220   2.019       .  S
Zn210       O212   1.970       .  S
Zn210       O215   2.017       .  S
Zn210       O218   2.013       .  S
Zn210       O221   2.027       .  S
Zn211       O212   1.963       .  S
Zn211       O219   2.030       .  S
Zn211       O222   2.011       .  S
Zn211       O223   2.025       .  S
O213        C225   1.272       .  A
O214        C226   1.275       .  A
O215        C227   1.272       .  A
O216        C225   1.275       .  A
O217        C227   1.271       .  A
O218        C226   1.272       .  A
O219        C228   1.274       .  A
O220        C229   1.275       .  A
O221        C228   1.273       .  A
O222        C229   1.272       .  A
O223        C230   1.275       .  A
O224        C230   1.271       .  A
C225       C4236   1.484       .  S
C226       C4252   1.473       .  S
C227       C4290   1.470       .  S
C228       C4776   1.482       .  S
C229       C4308   1.474       .  S
C230       C4216   1.473       .  S
Zn231       O235   1.948       .  S
Zn231       O236   2.008       .  S
Zn231       O240   2.014       .  S
Zn231       O247   1.993       .  S
Zn232       O235   1.971       .  S
Zn232       O237   2.033       .  S
Zn232       O239   2.040       .  S
Zn232       O243   2.031       .  S
Zn233       O235   1.953       .  S
Zn233       O238   2.030       .  S
Zn233       O241   2.011       .  S
Zn233       O244   2.008       .  S
Zn234       O235   1.969       .  S
Zn234       O242   2.036       .  S
Zn234       O245   2.008       .  S
Zn234       O246   2.031       .  S
O236        C248   1.273       .  A
O237        C249   1.276       .  A
O238        C250   1.274       .  A
O239        C248   1.275       .  A
O240        C250   1.273       .  A
O241        C249   1.273       .  A
O242        C251   1.274       .  A
O243        C252   1.276       .  A
O244        C251   1.273       .  A
O245        C252   1.272       .  A
O246        C253   1.274       .  A
O247        C253   1.272       .  A
C248       C4686   1.483       .  S
C249       C4162   1.477   1_455  S
C250       C4344   1.480       .  S
C251       C4198   1.482       .  S
C252       C4144   1.476       .  S
C253       C4182   1.477       .  S
Zn254       O258   1.954       .  S
Zn254       O259   2.033       .  S
Zn254       O263   2.007       .  S
Zn254       O270   2.011       .  S
Zn255       O258   1.941       .  S
Zn255       O260   1.998       .  S
Zn255       O262   2.012       .  S
Zn255       O266   2.009       .  S
Zn256       O258   1.970       .  S
Zn256       O261   2.016       .  S
Zn256       O264   2.049       .  S
Zn256       O267   2.054       .  S
Zn257       O258   1.945       .  S
Zn257       O265   2.002       .  S
Zn257       O268   2.011       .  S
Zn257       O269   2.008       .  S
O259        C271   1.274       .  A
O260        C272   1.273       .  A
O261        C273   1.273       .  A
O262        C271   1.273       .  A
O263        C273   1.274       .  A
O264        C272   1.278       .  A
O265        C274   1.271       .  A
O266        C275   1.273       .  A
O267        C274   1.278       .  A
O268        C275   1.272       .  A
O269        C276   1.272       .  A
O270        C276   1.273       .  A
C271       C4632   1.480       .  S
C272       C4164   1.480       .  S
C273       C4108   1.473       .  S
C274       C4128   1.479       .  S
C275       C4254   1.473       .  S
C276       C4180   1.470       .  S
Zn277       O281   1.963       .  S
Zn277       O282   2.021       .  S
Zn277       O286   2.034       .  S
Zn277       O293   1.998       .  S
Zn278       O281   1.960       .  S
Zn278       O283   2.030       .  S
Zn278       O285   2.031       .  S
Zn278       O289   2.008       .  S
Zn279       O281   1.939   1_565  S
Zn279       O284   1.994       .  S
Zn279       O287   1.989       .  S
Zn279       O290   1.987       .  S
Zn280       O281   1.984   1_565  S
Zn280       O288   2.076       .  S
Zn280       O291   2.050       .  S
Zn280       O292   2.042       .  S
O282        C294   1.274       .  A
O283        C295   1.274       .  A
O284        C296   1.269   1_565  A
O285        C294   1.274       .  A
O286        C296   1.274       .  A
O287        C295   1.271   1_565  A
O288        C297   1.280       .  A
O289        C298   1.273       .  A
O290        C297   1.269       .  A
O291        C298   1.278   1_565  A
O292        C299   1.278       .  A
O293        C299   1.272   1_545  A
C294       C4326   1.482       .  S
C295       C4054   1.475       .  S
C296       C4092   1.474       .  S
C297       C4540   1.480       .  S
C298       C4038   1.479       .  S
C299       C4074   1.471       .  S
Zn300       O304   1.949       .  S
Zn300       O305   1.978       .  S
Zn300       O309   2.016       .  S
Zn300       O316   2.007       .  S
Zn301       O304   1.981   1_565  S
Zn301       O306   2.049       .  S
Zn301       O308   2.044       .  S
Zn301       O312   2.037       .  S
Zn302       O304   1.958   1_565  S
Zn302       O307   2.019       .  S
Zn302       O310   2.009       .  S
Zn302       O313   2.006   1_565  S
Zn303       O304   1.963       .  S
Zn303       O311   2.026   1_655  S
Zn303       O314   2.022       .  S
Zn303       O315   2.054       .  S
O305        C317   1.271   1_545  A
O306        C318   1.277       .  A
O307        C319   1.274   1_565  A
O308        C317   1.276       .  A
O309        C319   1.271       .  A
O310        C318   1.271       .  A
O311        C320   1.276       .  A
O312        C321   1.276   1_565  A
O313        C320   1.272   1_655  A
O314        C321   1.274       .  A
O315        C322   1.277       .  A
O316        C322   1.272       .  A
C317       C4056   1.478       .  S
C318       C4486   1.480       .  S
C319       C4000   1.478       .  S
C320       C4072   1.474       .  S
C321       C4020   1.480   1_545  S
C322       C4234   1.485       .  S
Zn323       O327   1.960   1_565  S
Zn323       O328   2.010       .  S
Zn323       O332   2.025       .  S
Zn323       O339   2.010       .  S
Zn324       O327   1.953       .  S
Zn324       O329   2.033       .  S
Zn324       O331   2.010   1_545  S
Zn324       O335   1.990       .  S
Zn325       O327   1.939   1_565  S
Zn325       O330   2.007       .  S
Zn325       O333   2.000       .  S
Zn325       O336   1.974       .  S
Zn326       O327   1.988       .  S
Zn326       O334   2.066       .  S
Zn326       O337   2.069       .  S
Zn326       O338   2.044       .  S
O328        C340   1.272       .  A
O329        C341   1.275       .  A
O330        C342   1.270       .  A
O331        C340   1.274       .  A
O332        C342   1.274       .  A
O333        C341   1.270   1_565  A
O334        C343   1.279       .  A
O335        C344   1.270       .  A
O336        C343   1.271   1_565  A
O337        C344   1.280       .  A
O338        C345   1.278   1_545  A
O339        C345   1.272       .  A
C340       C3966   1.474       .  S
C341       C4090   1.474       .  S
C342       C4414   1.476       .  S
C343       C3982   1.484       .  S
C344       C4126   1.478       .  S
C345       C3946   1.480       .  S
Zn346       O350   1.961   1_445  S
Zn346       O351   2.002       .  S
Zn346       O355   2.029   1_455  S
Zn346       O362   2.018       .  S
Zn347       O350   1.977       .  S
Zn347       O352   2.041       .  S
Zn347       O354   2.040   1_655  S
Zn347       O358   2.048       .  S
Zn348       O350   1.953       .  S
Zn348       O353   2.021       .  S
Zn348       O356   2.006       .  S
Zn348       O359   2.011       .  S
Zn349       O350   1.958   1_545  S
Zn349       O357   2.015       .  S
Zn349       O360   2.010       .  S
Zn349       O361   2.028       .  S
O351        C363   1.273   1_545  A
O352        C364   1.277       .  A
O353        C365   1.273       .  A
O354        C363   1.277       .  A
O355        C365   1.275   1_545  A
O356        C364   1.271       .  A
O357        C366   1.272       .  A
O358        C367   1.277       .  A
O359        C366   1.273   1_565  A
O360        C367   1.272   1_545  A
O361        C368   1.274       .  A
O362        C368   1.273   1_455  A
C363       C3984   1.479       .  S
C364       C4380   1.478       .  S
C365       C3930   1.480       .  S
C366       C3964   1.475       .  S
C367       C4018   1.479       .  S
C368       C4200   1.480   1_655  S
Zn369       O373   1.967       .  S
Zn369       O374   2.010       .  S
Zn369       O378   2.030       .  S
Zn369       O385   2.047       .  S
Zn370       O373   1.979       .  S
Zn370       O375   2.034       .  S
Zn370       O377   2.042       .  S
Zn370       O381   2.049       .  S
Zn371       O373   1.965       .  S
Zn371       O376   2.010       .  S
Zn371       O379   2.010       .  S
Zn371       O382   2.038       .  S
Zn372       O373   1.936       .  S
Zn372       O380   1.981       .  S
Zn372       O383   1.978       .  S
Zn372       O384   1.988       .  S
O374        C386   1.274       .  A
O375        C387   1.277       .  A
O376        C388   1.272       .  A
O377        C386   1.276       .  A
O378        C388   1.275       .  A
O379        C387   1.273       .  A
O380        C389   1.267       .  A
O381        C390   1.275       .  A
O382        C389   1.274       .  A
O383        C390   1.270       .  A
O384        C391   1.269       .  A
O385        C391   1.277       .  A
C386       C3892   1.482       .  S
C387       C4668   1.477       .  S
C388       C3876   1.474       .  S
C389       C3838   1.471       .  S
C390       C3858   1.477       .  S
C391       C3910   1.473       .  S
Zn392       O396   1.971       .  S
Zn392       O397   2.036       .  S
Zn392       O401   2.012       .  S
Zn392       O408   2.051       .  S
Zn393       O396   1.956       .  S
Zn393       O398   2.007       .  S
Zn393       O400   1.992       .  S
Zn393       O404   2.015       .  S
Zn394       O396   1.978       .  S
Zn394       O399   2.032       .  S
Zn394       O402   2.048       .  S
Zn394       O405   2.046       .  S
Zn395       O396   1.948       .  S
Zn395       O403   1.996       .  S
Zn395       O406   2.006       .  S
Zn395       O407   2.011       .  S
O397        C409   1.276       .  A
O398        C410   1.272       .  A
O399        C411   1.277       .  A
O400        C409   1.270       .  A
O401        C411   1.273       .  A
O402        C410   1.276       .  A
O403        C412   1.273       .  A
O404        C413   1.272       .  A
O405        C412   1.276       .  A
O406        C413   1.272       .  A
O407        C414   1.271       .  A
O408        C414   1.277       .  A
C409       C3856   1.472       .  S
C410       C3802   1.483       .  S
C411       C4614   1.477       .  S
C412       C3874   1.480       .  S
C413       C3820   1.473       .  S
C414       C3784   1.483       .  S
Zn415       O419   1.970       .  S
Zn415       O420   2.043       .  S
Zn415       O424   2.044       .  S
Zn415       O431   2.033       .  S
Zn416       O419   1.956       .  S
Zn416       O421   2.012       .  S
Zn416       O423   1.998       .  S
Zn416       O427   1.990       .  S
Zn417       O419   1.941       .  S
Zn417       O422   1.978       .  S
Zn417       O425   2.009       .  S
Zn417       O428   2.004       .  S
Zn418       O419   1.970       .  S
Zn418       O426   2.052       .  S
Zn418       O429   2.022       .  S
Zn418       O430   2.044       .  S
O420        C432   1.277       .  A
O421        C433   1.270       .  A
O422        C434   1.271       .  A
O423        C432   1.270       .  A
O424        C434   1.276       .  A
O425        C433   1.271       .  A
O426        C435   1.278       .  A
O427        C436   1.270       .  A
O428        C435   1.271       .  A
O429        C436   1.275       .  A
O430        C437   1.277       .  A
O431        C437   1.276       .  A
C432       C3912   1.476       .  S
C433       C3768   1.474       .  S
C434       C3730   1.479       .  S
C435       C3694   1.480       .  S
C436       C3750   1.468       .  S
C437       C3712   1.485       .  S
Zn438       O442   1.950       .  S
Zn438       O443   2.021       .  S
Zn438       O447   1.994       .  S
Zn438       O454   2.002       .  S
Zn439       O442   1.951       .  S
Zn439       O444   1.989       .  S
Zn439       O446   1.999       .  S
Zn439       O450   1.995       .  S
Zn440       O442   1.970       .  S
Zn440       O445   2.037       .  S
Zn440       O448   2.036       .  S
Zn440       O451   2.046       .  S
Zn441       O442   1.958       .  S
Zn441       O449   2.014       .  S
Zn441       O452   2.006       .  S
Zn441       O453   2.021       .  S
O443        C455   1.273       .  A
O444        C456   1.270       .  A
O445        C457   1.276       .  A
O446        C455   1.269       .  A
O447        C457   1.272       .  A
O448        C456   1.276       .  A
O449        C458   1.274       .  A
O450        C459   1.269       .  A
O451        C458   1.276       .  A
O452        C459   1.272       .  A
O453        C460   1.273       .  A
O454        C460   1.273       .  A
C455       C3658   1.471       .  S
C456       C3640   1.471       .  S
C457       C3732   1.477       .  S
C458       C3678   1.485       .  S
C459       C3748   1.467   1_655  S
C460       C3822   1.474       .  S
Zn461       O465   1.961       .  S
Zn461       O466   2.041       .  S
Zn461       O470   2.005       .  S
Zn461       O477   2.031       .  S
Zn462       O465   1.938   1_655  S
Zn462       O467   1.987       .  S
Zn462       O469   2.013       .  S
Zn462       O473   1.991       .  S
Zn463       O465   1.976       .  S
Zn463       O468   2.046       .  S
Zn463       O471   2.063   1_455  S
Zn463       O474   2.035       .  S
Zn464       O465   1.970       .  S
Zn464       O472   2.027       .  S
Zn464       O475   2.047       .  S
Zn464       O476   2.019       .  S
O466        C478   1.276   1_455  A
O467        C479   1.269       .  A
O468        C480   1.278       .  A
O469        C478   1.272       .  A
O470        C480   1.271       .  A
O471        C479   1.278       .  A
O472        C481   1.275       .  A
O473        C482   1.270   1_655  A
O474        C481   1.276       .  A
O475        C482   1.276       .  A
O476        C483   1.275       .  A
O477        C483   1.275       .  A
C478       C3676   1.481       .  S
C479       C3588   1.474       .  S
C480       C3624   1.478       .  S
C481       C3568   1.479       .  S
C482       C3552   1.474       .  S
C483       C3604   1.479       .  S
Zn484       O488   1.957       .  S
Zn484       O489   2.007       .  S
Zn484       O493   2.021       .  S
Zn484       O500   2.020       .  S
Zn485       O488   1.966       .  S
Zn485       O490   2.030       .  S
Zn485       O492   2.030       .  S
Zn485       O496   2.016       .  S
Zn486       O488   1.964       .  S
Zn486       O491   2.026       .  S
Zn486       O494   2.025       .  S
Zn486       O497   2.014       .  S
Zn487       O488   1.965       .  S
Zn487       O495   2.009       .  S
Zn487       O498   2.025       .  S
Zn487       O499   2.026       .  S
O489        C501   1.274       .  A
O490        C502   1.274       .  A
O491        C503   1.274       .  A
O492        C501   1.274       .  A
O493        C503   1.275       .  A
O494        C502   1.275       .  A
O495        C504   1.272       .  A
O496        C505   1.274       .  A
O497        C504   1.273       .  A
O498        C505   1.274       .  A
O499        C506   1.273       .  A
O500        C506   1.273       .  A
C501       C3766   1.478       .  S
C502       C3586   1.482       .  S
C503       C3496   1.480       .  S
C504       C3514   1.472       .  S
C505       C3532   1.480       .  S
C506       C3606   1.480       .  S
Zn507       O511   1.931       .  S
Zn507       O512   1.979   1_455  S
Zn507       O516   1.983       .  S
Zn507       O523   1.986       .  S
Zn508       O511   1.967       .  S
Zn508       O513   2.022       .  S
Zn508       O515   2.027       .  S
Zn508       O519   2.013       .  S
Zn509       O511   1.967       .  S
Zn509       O514   2.056       .  S
Zn509       O517   2.027       .  S
Zn509       O520   2.006       .  S
Zn510       O511   1.974       .  S
Zn510       O518   2.024       .  S
Zn510       O521   2.027       .  S
Zn510       O522   2.051       .  S
O512        C524   1.270       .  A
O513        C525   1.273       .  A
O514        C526   1.277       .  A
O515        C524   1.272   1_455  A
O516        C526   1.269       .  A
O517        C525   1.275       .  A
O518        C527   1.275       .  A
O519        C528   1.273       .  A
O520        C527   1.274       .  A
O521        C528   1.276       .  A
O522        C529   1.276       .  A
O523        C529   1.268       .  A
C524       C3462   1.473       .  S
C525       C3894   1.477       .  S
C526       C3622   1.474       .  S
C527       C3478   1.474       .  S
C528       C4146   1.476       .  S
C529       C3444   1.475       .  S
Zn530       O534   1.954       .  S
Zn530       O535   2.029       .  S
Zn530       O539   1.999       .  S
Zn530       O546   2.010       .  S
Zn531       O534   1.960       .  S
Zn531       O536   2.008       .  S
Zn531       O538   2.028       .  S
Zn531       O542   2.015       .  S
Zn532       O534   1.972       .  S
Zn532       O537   2.030       .  S
Zn532       O540   2.022       .  S
Zn532       O543   2.044       .  S
Zn533       O534   1.954       .  S
Zn533       O541   2.009       .  S
Zn533       O544   2.000       .  S
Zn533       O545   2.026       .  S
O535        C547   1.274       .  A
O536        C548   1.274       .  A
O537        C549   1.275       .  A
O538        C547   1.273       .  A
O539        C549   1.273       .  A
O540        C548   1.274       .  A
O541        C550   1.272       .  A
O542        C551   1.272       .  A
O543        C550   1.275       .  A
O544        C551   1.273       .  A
O545        C552   1.274       .  A
O546        C552   1.274       .  A
C547       C3424   1.482       .  S
C548       C4110   1.475       .  S
C549       C3480   1.476       .  S
C550       C3804   1.482       .  S
C551       C3460   1.471       .  S
C552       C3534   1.478       .  S
Zn553       O557   1.942   1_455  S
Zn553       O558   1.993       .  S
Zn553       O562   1.991       .  S
Zn553       O569   2.014       .  S
Zn554       O557   1.974   1_465  S
Zn554       O559   2.024       .  S
Zn554       O561   2.038       .  S
Zn554       O565   2.042   1_455  S
Zn555       O557   1.978       .  S
Zn555       O560   2.047       .  S
Zn555       O563   2.041       .  S
Zn555       O566   2.042       .  S
Zn556       O557   1.952   1_565  S
Zn556       O564   1.997   1_565  S
Zn556       O567   2.000       .  S
Zn556       O568   2.034       .  S
O558        C570   1.272   1_545  A
O559        C571   1.275   1_465  A
O560        C572   1.277   1_655  A
O561        C570   1.274       .  A
O562        C572   1.270       .  A
O563        C571   1.276       .  A
O564        C573   1.272       .  A
O565        C574   1.277       .  A
O566        C573   1.276       .  A
O567        C574   1.272       .  A
O568        C575   1.275   1_565  A
O569        C575   1.271   1_455  A
C570       C3370   1.480       .  S
C571       C3406   1.483       .  S
C572       C3442   1.475       .  S
C573       C3354   1.480       .  S
C574       C3388   1.475       .  S
C575       C3928   1.480   1_655  S
Zn576       O580   1.956       .  S
Zn576       O581   2.036       .  S
Zn576       O585   2.001       .  S
Zn576       O592   2.008       .  S
Zn577       O580   1.951       .  S
Zn577       O582   2.009       .  S
Zn577       O584   2.022       .  S
Zn577       O588   2.000       .  S
Zn578       O580   1.977   1_565  S
Zn578       O583   2.039       .  S
Zn578       O586   2.038       .  S
Zn578       O589   2.049       .  S
Zn579       O580   1.976   1_565  S
Zn579       O587   2.024       .  S
Zn579       O590   2.031       .  S
Zn579       O591   2.055       .  S
O581        C593   1.274       .  A
O582        C594   1.272       .  A
O583        C595   1.276       .  A
O584        C593   1.272       .  A
O585        C595   1.273   1_545  A
O586        C594   1.276   1_565  A
O587        C596   1.274       .  A
O588        C597   1.272       .  A
O589        C596   1.277       .  A
O590        C597   1.276   1_565  A
O591        C598   1.279       .  A
O592        C598   1.273   1_545  A
C593       C3426   1.482       .  S
C594       C3948   1.478       .  S
C595       C3352   1.480       .  S
C596       C3316   1.486       .  S
C597       C3372   1.472       .  S
C598       C3334   1.479       .  S
Zn599       O603   1.946       .  S
Zn599       O604   1.972       .  S
Zn599       O608   2.008       .  S
Zn599       O615   2.017       .  S
Zn600       O603   1.970   1_545  S
Zn600       O605   2.037       .  S
Zn600       O607   2.037       .  S
Zn600       O611   2.039       .  S
Zn601       O603   1.963       .  S
Zn601       O606   2.043       .  S
Zn601       O609   2.023       .  S
Zn601       O612   2.009       .  S
Zn602       O603   1.957   1_545  S
Zn602       O610   2.000       .  S
Zn602       O613   2.019       .  S
Zn602       O614   2.032       .  S
O604        C616   1.267       .  A
O605        C617   1.275   1_545  A
O606        C618   1.275       .  A
O607        C616   1.277   1_545  A
O608        C618   1.273       .  A
O609        C617   1.274       .  A
O610        C619   1.272   1_445  A
O611        C620   1.276       .  A
O612        C619   1.274   1_455  A
O613        C620   1.275       .  A
O614        C621   1.274   1_545  A
O615        C621   1.272       .  A
C616       C3282   1.467       .  S
C617       C3408   1.482   1_565  S
C618       C3298   1.484       .  S
C619       C3264   1.466       .  S
C620       C3570   1.483       .  S
C621       C3244   1.478       .  S
Zn622       O626   1.927   1_545  S
Zn622       O627   2.010       .  S
Zn622       O631   1.993       .  S
Zn622       O638   1.977       .  S
Zn623       O626   1.945       .  S
Zn623       O628   2.004       .  S
Zn623       O630   2.041       .  S
Zn623       O634   2.011       .  S
Zn624       O626   1.953   1_545  S
Zn624       O629   2.031       .  S
Zn624       O632   2.016       .  S
Zn624       O635   2.036       .  S
Zn625       O626   1.951       .  S
Zn625       O633   2.023       .  S
Zn625       O636   2.031       .  S
Zn625       O637   2.029       .  S
O627        C639   1.272   1_545  A
O628        C640   1.273       .  A
O629        C641   1.273       .  A
O630        C639   1.276       .  A
O631        C641   1.272       .  A
O632        C640   1.277   1_545  A
O633        C642   1.274       .  A
O634        C643   1.274       .  A
O635        C642   1.277   1_545  A
O636        C643   1.274       .  A
O637        C644   1.276       .  A
O638        C644   1.268   1_545  A
C639       C3336   1.479       .  S
C640       C3262   1.470       .  S
C641       C3516   1.477       .  S
C642       C3208   1.481       .  S
C643       C3226   1.478       .  S
C644       C3280   1.463       .  S
Zn645       O649   1.985       .  S
Zn645       O650   2.057       .  S
Zn645       O654   2.053       .  S
Zn645       O661   2.048       .  S
Zn646       O649   1.941       .  S
Zn646       O651   2.003       .  S
Zn646       O653   1.973       .  S
Zn646       O657   1.982       .  S
Zn647       O649   1.953       .  S
Zn647       O652   2.000       .  S
Zn647       O655   2.013       .  S
Zn647       O658   2.001       .  S
Zn648       O649   1.980       .  S
Zn648       O656   2.046       .  S
Zn648       O659   2.074       .  S
Zn648       O660   2.035       .  S
O650        C662   1.276       .  A
O651        C663   1.269       .  A
O652        C664   1.271       .  A
O653        C662   1.269       .  A
O654        C664   1.278       .  A
O655        C663   1.272       .  A
O656        C665   1.277       .  A
O657        C666   1.269       .  A
O658        C665   1.272       .  A
O659        C666   1.280       .  A
O660        C667   1.277       .  A
O661        C667   1.278       .  A
C662       C3174   1.482       .  S
C663       C3840   1.473       .  S
C664       C4398   1.478       .  S
C665       C3154   1.476       .  S
C666       C3190   1.478       .  S
C667       C3318   1.486       .  S
Zn668       O672   1.949       .  S
Zn668       O673   2.030       .  S
Zn668       O677   2.016       .  S
Zn668       O684   2.010       .  S
Zn669       O672   1.935       .  S
Zn669       O674   2.000       .  S
Zn669       O676   1.992       .  S
Zn669       O680   1.980       .  S
Zn670       O672   1.961       .  S
Zn670       O675   2.026       .  S
Zn670       O678   2.035       .  S
Zn670       O681   1.990       .  S
Zn671       O672   1.976       .  S
Zn671       O679   2.045       .  S
Zn671       O682   2.053       .  S
Zn671       O683   2.051       .  S
O673        C685   1.274       .  A
O674        C686   1.269       .  A
O675        C687   1.274       .  A
O676        C685   1.272       .  A
O677        C687   1.275       .  A
O678        C686   1.274       .  A
O679        C688   1.278       .  A
O680        C689   1.271       .  A
O681        C688   1.270       .  A
O682        C689   1.277       .  A
O683        C690   1.277       .  A
O684        C690   1.272       .  A
C685       C4362   1.475       .  S
C686       C3390   1.475       .  S
C687       C3156   1.479       .  S
C688       C3136   1.471       .  S
C689       C3172   1.480       .  S
C690       C3786   1.481       .  S
Zn691       O695   1.955       .  S
Zn691       O696   2.004       .  S
Zn691       O700   2.022       .  S
Zn691       O707   2.025       .  S
Zn692       O695   1.975       .  S
Zn692       O697   2.025       .  S
Zn692       O699   2.032       .  S
Zn692       O703   2.057       .  S
Zn693       O695   1.965       .  S
Zn693       O698   2.031       .  S
Zn693       O701   2.027       .  S
Zn693       O704   2.031       .  S
Zn694       O695   1.952       .  S
Zn694       O702   1.999       .  S
Zn694       O705   2.005       .  S
Zn694       O706   2.030       .  S
O696        C708   1.272       .  A
O697        C709   1.274       .  A
O698        C710   1.274       .  A
O699        C708   1.277       .  A
O700        C710   1.274       .  A
O701        C709   1.274       .  A
O702        C711   1.273       .  A
O703        C712   1.279       .  A
O704        C711   1.274       .  A
O705        C712   1.272       .  A
O706        C713   1.275       .  A
O707        C713   1.273       .  A
C708       C3118   1.471       .  S
C709       C3300   1.480       .  S
C710       C3082   1.481       .  S
C711       C3102   1.477       .  S
C712       C3192   1.480       .  S
C713       C3714   1.483       .  S
Zn714       O718   1.970       .  S
Zn714       O719   2.026       .  S
Zn714       O723   2.044       .  S
Zn714       O730   2.014       .  S
Zn715       O718   1.950       .  S
Zn715       O720   2.012       .  S
Zn715       O722   1.996       .  S
Zn715       O726   1.994       .  S
Zn716       O718   1.940       .  S
Zn716       O721   1.984       .  S
Zn716       O724   2.004       .  S
Zn716       O727   1.981       .  S
Zn717       O718   1.978       .  S
Zn717       O725   2.051       .  S
Zn717       O728   2.047       .  S
Zn717       O729   2.034       .  S
O719        C731   1.274       .  A
O720        C732   1.270       .  A
O721        C733   1.269       .  A
O722        C731   1.270       .  A
O723        C733   1.277       .  A
O724        C732   1.271       .  A
O725        C734   1.276       .  A
O726        C735   1.271       .  A
O727        C734   1.271       .  A
O728        C735   1.278       .  A
O729        C736   1.275       .  A
O730        C736   1.275       .  A
C731       C3100   1.470       .  S
C732       C3660   1.474       .  S
C733       C3138   1.472       .  S
C734       C3120   1.480       .  S
C735       C3064   1.475       .  S
C736       C3228   1.478       .  S
Zn737       O741   1.954       .  S
Zn737       O742   1.988       .  S
Zn737       O746   2.027       .  S
Zn737       O753   2.014       .  S
Zn738       O741   1.985       .  S
Zn738       O743   2.051       .  S
Zn738       O745   2.051       .  S
Zn738       O749   2.058       .  S
Zn739       O741   1.941       .  S
Zn739       O744   1.996       .  S
Zn739       O747   1.979       .  S
Zn739       O750   1.988       .  S
Zn740       O741   1.957       .  S
Zn740       O748   2.026       .  S
Zn740       O751   2.012       .  S
Zn740       O752   2.028       .  S
O742        C754   1.273       .  A
O743        C755   1.277       .  A
O744        C756   1.270       .  A
O745        C754   1.277       .  A
O746        C756   1.274       .  A
O747        C755   1.268       .  A
O748        C757   1.273       .  A
O749        C758   1.279       .  A
O750        C757   1.271       .  A
O751        C758   1.273       .  A
O752        C759   1.274       .  A
O753        C759   1.273       .  A
C754       C2992   1.480       .  S
C755       C2974   1.472       .  S
C756       C2956   1.473       .  S
C757       C3010   1.473       .  S
C758       C3048   1.481       .  S
C759       C3028   1.478       .  S
Zn760       O764   1.959       .  S
Zn760       O765   2.029       .  S
Zn760       O769   2.015       .  S
Zn760       O776   2.015       .  S
Zn761       O764   1.956       .  S
Zn761       O766   1.998   1_655  S
Zn761       O768   2.026       .  S
Zn761       O772   2.021       .  S
Zn762       O764   1.970       .  S
Zn762       O767   2.026       .  S
Zn762       O770   2.025   1_655  S
Zn762       O773   2.020       .  S
Zn763       O764   1.960       .  S
Zn763       O771   2.016       .  S
Zn763       O774   2.030       .  S
Zn763       O775   2.015       .  S
O765        C777   1.274       .  A
O766        C778   1.273       .  A
O767        C779   1.273       .  A
O768        C777   1.275       .  A
O769        C779   1.274       .  A
O770        C778   1.274       .  A
O771        C780   1.274       .  A
O772        C781   1.274       .  A
O773        C780   1.273       .  A
O774        C781   1.274       .  A
O775        C782   1.273       .  A
O776        C782   1.274       .  A
C777       C2884   1.482       .  S
C778       C3012   1.473       .  S
C779       C2904   1.479       .  S
C780       C2938   1.477       .  S
C781       C2920   1.482       .  S
C782       C2994   1.473       .  S
Zn783       O787   1.987       .  S
Zn783       O788   2.063       .  S
Zn783       O792   2.054       .  S
Zn783       O799   2.046       .  S
Zn784       O787   1.934       .  S
Zn784       O789   1.987       .  S
Zn784       O791   1.975       .  S
Zn784       O795   2.003       .  S
Zn785       O787   1.969       .  S
Zn785       O790   2.016       .  S
Zn785       O793   2.042       .  S
Zn785       O796   2.021       .  S
Zn786       O787   1.959       .  S
Zn786       O794   2.010       .  S
Zn786       O797   2.051       .  S
Zn786       O798   2.011       .  S
O788        C800   1.278       .  A
O789        C801   1.268       .  A
O790        C802   1.273       .  A
O791        C800   1.271       .  A
O792        C802   1.278       .  A
O793        C801   1.276       .  A
O794        C803   1.275       .  A
O795        C804   1.270       .  A
O796        C803   1.273       .  A
O797        C804   1.276       .  A
O798        C805   1.273       .  A
O799        C805   1.278       .  A
C800       C2850   1.485       .  S
C801       C2866   1.473       .  S
C802       C3046   1.482       .  S
C803       C2830   1.477       .  S
C804       C3696   1.481       .  S
C805       C2812   1.478       .  S
Zn806       O810   1.950       .  S
Zn806       O811   2.000       .  S
Zn806       O815   2.008       .  S
Zn806       O822   1.990       .  S
Zn807       O810   1.963       .  S
Zn807       O812   2.031       .  S
Zn807       O814   2.026       .  S
Zn807       O818   2.011       .  S
Zn808       O810   1.956       .  S
Zn808       O813   2.026       .  S
Zn808       O816   2.009       .  S
Zn808       O819   1.995       .  S
Zn809       O810   1.975       .  S
Zn809       O817   2.040       .  S
Zn809       O820   2.040       .  S
Zn809       O821   2.033       .  S
O811        C823   1.270       .  A
O812        C824   1.275       .  A
O813        C825   1.274       .  A
O814        C823   1.274       .  A
O815        C825   1.271       .  A
O816        C824   1.275       .  A
O817        C826   1.276       .  A
O818        C827   1.274       .  A
O819        C826   1.271       .  A
O820        C827   1.275       .  A
O821        C828   1.276       .  A
O822        C828   1.269       .  A
C823       C2832   1.472       .  S
C824       C2940   1.478       .  S
C825       C2776   1.476       .  S
C826       C2848   1.478       .  S
C827       C2794   1.481       .  S
C828       C3642   1.472       .  S
Zn829       O833   1.978       .  S
Zn829       O834   2.049       .  S
Zn829       O838   2.033       .  S
Zn829       O845   2.020       .  S
Zn830       O833   1.935       .  S
Zn830       O835   1.983       .  S
Zn830       O837   1.986       .  S
Zn830       O841   1.994       .  S
Zn831       O833   1.969       .  S
Zn831       O836   2.014       .  S
Zn831       O839   2.040       .  S
Zn831       O842   2.020       .  S
Zn832       O833   1.976       .  S
Zn832       O840   2.036       .  S
Zn832       O843   2.072       .  S
Zn832       O844   2.024       .  S
O834        C846   1.276       .  A
O835        C847   1.270       .  A
O836        C848   1.272       .  A
O837        C846   1.268       .  A
O838        C848   1.276       .  A
O839        C847   1.274       .  A
O840        C849   1.276       .  A
O841        C850   1.270       .  A
O842        C849   1.274       .  A
O843        C850   1.279       .  A
O844        C851   1.276       .  A
O845        C851   1.274       .  A
C846       C2704   1.475       .  S
C847       C2740   1.477       .  S
C848       C2686   1.477       .  S
C849       C2922   1.481       .  S
C850       C2758   1.482       .  S
C851       C2722   1.474   1_455  S
Zn852       O856   1.948       .  S
Zn852       O857   2.014       .  S
Zn852       O861   2.005       .  S
Zn852       O868   2.002       .  S
Zn853       O856   1.946       .  S
Zn853       O858   1.997       .  S
Zn853       O860   2.002       .  S
Zn853       O864   1.989       .  S
Zn854       O856   1.967       .  S
Zn854       O859   2.028       .  S
Zn854       O862   2.034       .  S
Zn854       O865   2.018       .  S
Zn855       O856   1.973       .  S
Zn855       O863   2.015       .  S
Zn855       O866   2.036       .  S
Zn855       O867   2.052       .  S
O857        C869   1.273       .  A
O858        C870   1.272       .  A
O859        C871   1.274       .  A
O860        C869   1.270       .  A
O861        C871   1.273       .  A
O862        C870   1.273       .  A
O863        C872   1.273       .  A
O864        C873   1.269       .  A
O865        C872   1.275       .  A
O866        C873   1.276       .  A
O867        C874   1.278       .  A
O868        C874   1.271       .  A
C869       C2668   1.471       .  S
C870       C3030   1.480       .  S
C871       C2724   1.477       .  S
C872       C2632   1.474       .  S
C873       C2742   1.472       .  S
C874       C2652   1.478       .  S
Zn875       O879   1.981       .  S
Zn875       O880   2.044       .  S
Zn875       O884   2.054       .  S
Zn875       O891   2.053       .  S
Zn876       O879   1.945       .  S
Zn876       O881   1.992       .  S
Zn876       O883   1.986       .  S
Zn876       O887   2.024       .  S
Zn877       O879   1.968       .  S
Zn877       O882   2.016       .  S
Zn877       O885   2.042       .  S
Zn877       O888   2.038       .  S
Zn878       O879   1.939       .  S
Zn878       O886   1.987       .  S
Zn878       O889   2.021       .  S
Zn878       O890   1.993       .  S
O880        C892   1.276       .  A
O881        C893   1.270       .  A
O882        C894   1.273       .  A
O883        C892   1.272       .  A
O884        C894   1.278       .  A
O885        C893   1.277       .  A
O886        C895   1.272       .  A
O887        C896   1.273       .  A
O888        C895   1.275       .  A
O889        C896   1.272       .  A
O890        C897   1.271       .  A
O891        C897   1.278       .  A
C892       C2616   1.479       .  S
C893       C2868   1.474       .  S
C894       C2760   1.483       .  S
C895       C2596   1.477       .  S
C896       C3084   1.480       .  S
C897       C2578   1.476       .  S
Zn898       O902   1.950       .  S
Zn898       O903   2.008       .  S
Zn898       O907   1.990       .  S
Zn898       O914   2.006       .  S
Zn899       O902   1.950       .  S
Zn899       O904   2.002       .  S
Zn899       O906   2.012       .  S
Zn899       O910   1.988       .  S
Zn900       O902   1.972       .  S
Zn900       O905   2.034       .  S
Zn900       O908   2.044       .  S
Zn900       O911   2.037       .  S
Zn901       O902   1.965       .  S
Zn901       O909   2.011       .  S
Zn901       O912   2.031       .  S
Zn901       O913   2.036       .  S
O903        C915   1.273       .  A
O904        C916   1.272       .  A
O905        C917   1.275       .  A
O906        C915   1.271       .  A
O907        C917   1.272       .  A
O908        C916   1.275       .  A
O909        C918   1.273       .  A
O910        C919   1.271       .  A
O911        C918   1.277       .  A
O912        C919   1.274       .  A
O913        C920   1.276       .  A
O914        C920   1.270       .  A
C915       C2670   1.474       .  S
C916       C2796   1.480       .  S
C917       C2614   1.476       .  S
C918       C3066   1.477       .  S
C919       C2598   1.476       .  S
C920       C2560   1.479       .  S
Zn921       O925   1.970       .  S
Zn921       O926   2.014       .  S
Zn921       O930   2.077       .  S
Zn921       O937   2.023       .  S
Zn922       O925   1.992       .  S
Zn922       O927   2.066       .  S
Zn922       O929   2.070       .  S
Zn922       O933   2.068       .  S
Zn923       O925   1.925       .  S
Zn923       O928   1.978       .  S
Zn923       O931   1.959       .  S
Zn923       O934   1.986       .  S
Zn924       O925   1.963       .  S
Zn924       O932   2.038       .  S
Zn924       O935   2.016       .  S
Zn924       O936   2.001       .  S
O926        C938   1.274       .  A
O927        C939   1.278       .  A
O928        C940   1.267       .  A
O929        C938   1.281       .  A
O930        C940   1.278       .  A
O931        C939   1.269       .  A
O932        C941   1.274       .  A
O933        C942   1.280       .  A
O934        C941   1.267       .  A
O935        C942   1.274       .  A
O936        C943   1.271       .  A
O937        C943   1.276       .  A
C938       C2526   1.483       .  S
C939       C2488   1.482       .  S
C940       C2544   1.479       .  S
C941       C2976   1.473       .  S
C942       C2470   1.486       .  S
C943       C2506   1.472       .  S
Zn944       O948   1.942       .  S
Zn944       O949   2.003       .  S
Zn944       O953   2.015       .  S
Zn944       O960   2.002       .  S
Zn945       O948   1.972       .  S
Zn945       O950   2.039       .  S
Zn945       O952   2.045       .  S
Zn945       O956   2.042       .  S
Zn946       O948   1.949       .  S
Zn946       O951   2.011       .  S
Zn946       O954   1.989       .  S
Zn946       O957   2.011       .  S
Zn947       O948   1.953       .  S
Zn947       O955   2.017       .  S
Zn947       O958   1.990       .  S
Zn947       O959   2.027       .  S
O949        C961   1.271       .  A
O950        C962   1.277       .  A
O951        C963   1.272       .  A
O952        C961   1.276       .  A
O953        C963   1.273       .  A
O954        C962   1.270       .  A
O955        C964   1.273       .  A
O956        C965   1.277       .  A
O957        C964   1.271       .  A
O958        C965   1.272       .  A
O959        C966   1.275       .  A
O960        C966   1.272       .  A
C961       C2902   1.476       .  S
C962       C2454   1.470       .  S
C963       C2508   1.474   1_655  S
C964       C2434   1.473       .  S
C965       C2490   1.477       .  S
C966       C2416   1.472       .  S
Zn967       O971   1.948       .  S
Zn967       O972   1.995       .  S
Zn967       O976   1.999       .  S
Zn967       O983   2.017       .  S
Zn968       O971   1.986       .  S
Zn968       O973   2.061       .  S
Zn968       O975   2.052       .  S
Zn968       O979   2.066       .  S
Zn969       O971   1.969       .  S
Zn969       O974   2.032       .  S
Zn969       O977   2.001       .  S
Zn969       O980   2.035       .  S
Zn970       O971   1.955       .  S
Zn970       O978   1.999       .  S
Zn970       O981   2.002       .  S
Zn970       O982   2.030       .  S
O972        C984   1.271       .  A
O973        C985   1.278       .  A
O974        C986   1.275       .  A
O975        C984   1.278       .  A
O976        C986   1.270       .  A
O977        C985   1.271       .  A
O978        C987   1.271       .  A
O979        C988   1.280       .  A
O980        C987   1.276       .  A
O981        C988   1.273       .  A
O982        C989   1.274       .  A
O983        C989   1.272       .  A
C984       C2814   1.475       .  S
C985       C2542   1.480       .  S
C986       C2382   1.475       .  S
C987       C2398   1.473       .  S
C988       C2362   1.487       .  S
C989       C3498   1.479       .  S
Zn990       O994   1.973   1_455  S
Zn990       O995   2.045   1_455  S
Zn990       O999   2.037       .  S
Zn990      O1006   2.020       .  S
Zn991       O994   1.943       .  S
Zn991       O996   1.999       .  S
Zn991       O998   1.985       .  S
Zn991      O1002   1.997       .  S
Zn992       O994   1.961   1_455  S
Zn992       O997   2.003       .  S
Zn992      O1000   2.034   1_455  S
Zn992      O1003   2.007       .  S
Zn993       O994   1.975       .  S
Zn993      O1001   2.032       .  S
Zn993      O1004   2.061       .  S
Zn993      O1005   2.041       .  S
O995       C1007   1.278       .  A
O996       C1008   1.271       .  A
O997       C1009   1.271       .  A
O998       C1007   1.269       .  A
O999       C1009   1.275       .  A
O1000      C1008   1.273       .  A
O1001      C1010   1.276       .  A
O1002      C1011   1.271       .  A
O1003      C1010   1.272   1_455  A
O1004      C1011   1.278       .  A
O1005      C1012   1.277       .  A
O1006      C1012   1.274   1_455  A
C1007      C2452   1.472       .  S
C1008      C2778   1.480       .  S
C1009      C2380   1.475       .  S
C1010      C3550   1.475   1_655  S
C1011      C2364   1.486       .  S
C1012      C2346   1.482   1_655  S
Zn1013     O1017   1.929   1_565  S
Zn1013     O1018   1.968       .  S
Zn1013     O1022   1.991       .  S
Zn1013     O1029   1.988       .  S
Zn1014     O1017   1.986       .  S
Zn1014     O1019   2.042       .  S
Zn1014     O1021   2.067       .  S
Zn1014     O1025   2.056       .  S
Zn1015     O1017   1.955   1_565  S
Zn1015     O1020   2.044       .  S
Zn1015     O1023   1.999       .  S
Zn1015     O1026   2.017       .  S
Zn1016     O1017   1.958       .  S
Zn1016     O1024   2.026       .  S
Zn1016     O1027   2.013       .  S
Zn1016     O1028   2.043       .  S
O1018      C1030   1.270   1_565  A
O1019      C1031   1.277       .  A
O1020      C1032   1.275       .  A
O1021      C1030   1.278       .  A
O1022      C1032   1.269       .  A
O1023      C1031   1.271   1_565  A
O1024      C1033   1.274   1_545  A
O1025      C1034   1.279       .  A
O1026      C1033   1.275       .  A
O1027      C1034   1.273       .  A
O1028      C1035   1.276       .  A
O1029      C1035   1.268   1_565  A
C1030      C2290   1.485       .  S
C1031      C2272   1.474   1_545  S
C1032      C2706   1.475       .  S
C1033      C2310   1.473       .  S
C1034      C2524   1.482       .  S
C1035      C2326   1.473       .  S
Zn1036     O1040   1.973       .  S
Zn1036     O1041   2.023       .  S
Zn1036     O1045   2.022       .  S
Zn1036     O1052   2.050       .  S
Zn1037     O1040   1.962   1_565  S
Zn1037     O1042   2.002       .  S
Zn1037     O1044   2.022       .  S
Zn1037     O1048   2.050       .  S
Zn1038     O1040   1.980   1_565  S
Zn1038     O1043   2.044       .  S
Zn1038     O1046   2.056       .  S
Zn1038     O1049   2.055       .  S
Zn1039     O1040   1.934       .  S
Zn1039     O1047   1.979       .  S
Zn1039     O1050   1.981       .  S
Zn1039     O1051   1.973       .  S
O1041      C1053   1.273       .  A
O1042      C1054   1.272       .  A
O1043      C1055   1.277   1_565  A
O1044      C1053   1.275   1_565  A
O1045      C1055   1.276       .  A
O1046      C1054   1.279       .  A
O1047      C1056   1.269   1_545  A
O1048      C1057   1.276   1_565  A
O1049      C1056   1.277       .  A
O1050      C1057   1.267       .  A
O1051      C1058   1.269       .  A
O1052      C1058   1.274       .  A
C1053      C2308   1.473       .  S
C1054      C2650   1.478       .  S
C1055      C2256   1.483       .  S
C1056      C2292   1.480       .  S
C1057      C2236   1.475       .  S
C1058      C2436   1.482       .  S
Zn1059     O1063   1.930   1_565  S
Zn1059     O1064   1.974       .  S
Zn1059     O1068   1.987       .  S
Zn1059     O1075   1.983       .  S
Zn1060     O1063   1.984       .  S
Zn1060     O1065   2.035       .  S
Zn1060     O1067   2.059       .  S
Zn1060     O1071   2.061       .  S
Zn1061     O1063   1.965   1_565  S
Zn1061     O1066   2.054       .  S
Zn1061     O1069   2.024       .  S
Zn1061     O1072   2.016       .  S
Zn1062     O1063   1.963       .  S
Zn1062     O1070   2.028       .  S
Zn1062     O1073   1.997       .  S
Zn1062     O1074   2.047       .  S
O1064      C1076   1.270   1_565  A
O1065      C1077   1.277       .  A
O1066      C1078   1.277       .  A
O1067      C1076   1.277       .  A
O1068      C1078   1.268       .  A
O1069      C1077   1.275   1_565  A
O1070      C1079   1.276   1_545  A
O1071      C1080   1.279       .  A
O1072      C1079   1.273       .  A
O1073      C1080   1.271       .  A
O1074      C1081   1.276       .  A
O1075      C1081   1.268   1_565  A
C1076      C2220   1.482       .  S
C1077      C3246   1.479       .  S
C1078      C2580   1.477       .  S
C1079      C2200   1.476   1_455  S
C1080      C2344   1.479       .  S
C1081      C2328   1.473       .  S
Zn1082     O1086   1.952       .  S
Zn1082     O1087   1.996       .  S
Zn1082     O1091   2.029       .  S
Zn1082     O1098   1.995       .  S
Zn1083     O1086   1.971   1_565  S
Zn1083     O1088   2.039       .  S
Zn1083     O1090   2.034       .  S
Zn1083     O1094   2.029       .  S
Zn1084     O1086   1.943   1_565  S
Zn1084     O1089   2.022       .  S
Zn1084     O1092   2.001       .  S
Zn1084     O1095   2.005   1_565  S
Zn1085     O1086   1.973       .  S
Zn1085     O1093   2.038       .  S
Zn1085     O1096   2.033       .  S
Zn1085     O1097   2.045       .  S
O1087      C1099   1.272   1_545  A
O1088      C1100   1.276       .  A
O1089      C1101   1.272   1_565  A
O1090      C1099   1.275       .  A
O1091      C1101   1.274       .  A
O1092      C1100   1.272       .  A
O1093      C1102   1.275       .  A
O1094      C1103   1.275   1_565  A
O1095      C1102   1.274       .  A
O1096      C1103   1.276       .  A
O1097      C1104   1.278       .  A
O1098      C1104   1.271       .  A
C1099      C2218   1.477       .  S
C1100      C2562   1.474       .  S
C1101      C3210   1.480   1_545  S
C1102      C2202   1.481       .  S
C1103      C2254   1.480       .  S
C1104      C2400   1.474       .  S
Zn1105     O1109   1.967       .  S
Zn1105     O1110   2.022       .  S
Zn1105     O1114   2.035       .  S
Zn1105     O1121   2.063       .  S
Zn1106     O1109   1.975       .  S
Zn1106     O1111   2.040       .  S
Zn1106     O1113   2.047       .  S
Zn1106     O1117   2.033       .  S
Zn1107     O1109   1.955       .  S
Zn1107     O1112   1.996       .  S
Zn1107     O1115   2.020       .  S
Zn1107     O1118   2.012       .  S
Zn1108     O1109   1.944       .  S
Zn1108     O1116   2.017       .  S
Zn1108     O1119   1.983       .  S
Zn1108     O1120   2.008       .  S
O1110      C1122   1.274       .  A
O1111      C1123   1.275       .  A
O1112      C1124   1.272       .  A
O1113      C1122   1.278       .  A
O1114      C1124   1.278       .  A
O1115      C1123   1.274       .  A
O1116      C1125   1.272       .  A
O1117      C1126   1.275       .  A
O1118      C1125   1.270       .  A
O1119      C1126   1.272       .  A
O1120      C1127   1.271       .  A
O1121      C1127   1.278       .  A
C1122      C2164   1.482       .  S
C1123      C4830   1.484       .  S
C1124      C2148   1.471       .  S
C1125      C2112   1.477       .  S
C1126      C2130   1.475   1_455  S
C1127      C2184   1.482       .  S
Zn1128     O1132   1.968       .  S
Zn1128     O1133   2.024       .  S
Zn1128     O1137   2.022       .  S
Zn1128     O1144   2.024       .  S
Zn1129     O1132   1.962       .  S
Zn1129     O1134   2.037       .  S
Zn1129     O1136   2.016       .  S
Zn1129     O1140   2.004       .  S
Zn1130     O1132   1.942       .  S
Zn1130     O1135   1.980       .  S
Zn1130     O1138   2.000       .  S
Zn1130     O1141   1.998       .  S
Zn1131     O1132   1.971       .  S
Zn1131     O1139   2.053       .  S
Zn1131     O1142   2.027       .  S
Zn1131     O1143   2.026       .  S
O1133      C1145   1.273       .  A
O1134      C1146   1.274       .  A
O1135      C1147   1.270       .  A
O1136      C1145   1.274       .  A
O1137      C1147   1.272       .  A
O1138      C1146   1.271       .  A
O1139      C1148   1.278       .  A
O1140      C1149   1.272       .  A
O1141      C1148   1.271       .  A
O1142      C1149   1.276       .  A
O1143      C1150   1.275       .  A
O1144      C1150   1.274       .  A
C1145      C2092   1.476       .  S
C1146      C2074   1.478       .  S
C1147      C2128   1.472       .  S
C1148      C4756   1.478       .  S
C1149      C2146   1.473       .  S
C1150      C2056   1.477       .  S
Zn1151     O1155   1.950   1_655  S
Zn1151     O1156   1.998       .  S
Zn1151     O1160   2.024   1_655  S
Zn1151     O1167   1.991       .  S
Zn1152     O1155   1.973       .  S
Zn1152     O1157   2.042       .  S
Zn1152     O1159   2.058       .  S
Zn1152     O1163   2.021       .  S
Zn1153     O1155   1.953       .  S
Zn1153     O1158   2.033       .  S
Zn1153     O1161   2.009       .  S
Zn1153     O1164   2.018       .  S
Zn1154     O1155   1.983       .  S
Zn1154     O1162   2.049       .  S
Zn1154     O1165   2.050       .  S
Zn1154     O1166   2.052   1_455  S
O1156      C1168   1.270   1_655  A
O1157      C1169   1.276       .  A
O1158      C1170   1.275       .  A
O1159      C1168   1.277       .  A
O1160      C1170   1.274       .  A
O1161      C1169   1.274       .  A
O1162      C1171   1.277       .  A
O1163      C1172   1.274       .  A
O1164      C1171   1.273       .  A
O1165      C1172   1.278       .  A
O1166      C1173   1.277       .  A
O1167      C1173   1.272       .  A
C1168      C2038   1.480   1_455  S
C1169      C2020   1.482       .  S
C1170      C2886   1.482       .  S
C1171      C1984   1.481       .  S
C1172      C2182   1.483       .  S
C1173      C2004   1.479       .  S
Zn1174     O1178   1.954       .  S
Zn1174     O1179   2.015       .  S
Zn1174     O1183   2.006       .  S
Zn1174     O1190   2.006       .  S
Zn1175     O1178   1.954       .  S
Zn1175     O1180   2.005       .  S
Zn1175     O1182   2.016       .  S
Zn1175     O1186   2.020       .  S
Zn1176     O1178   1.970       .  S
Zn1176     O1181   2.042       .  S
Zn1176     O1184   2.040       .  S
Zn1176     O1187   2.013       .  S
Zn1177     O1178   1.967       .  S
Zn1177     O1185   2.026       .  S
Zn1177     O1188   2.030       .  S
Zn1177     O1189   2.021       .  S
O1179      C1191   1.272       .  A
O1180      C1192   1.274       .  A
O1181      C1193   1.276       .  A
O1182      C1191   1.275       .  A
O1183      C1193   1.271       .  A
O1184      C1192   1.276       .  A
O1185      C1194   1.274       .  A
O1186      C1195   1.273       .  A
O1187      C1194   1.274       .  A
O1188      C1195   1.273       .  A
O1189      C1196   1.273       .  A
O1190      C1196   1.273       .  A
C1191      C2958   1.476       .  S
C1192      C1968   1.480       .  S
C1193      C2002   1.478       .  S
C1194      C2094   1.476       .  S
C1195      C2022   1.480       .  S
C1196      C1950   1.474       .  S
Zn1197     O1201   1.956       .  S
Zn1197     O1202   2.012       .  S
Zn1197     O1206   2.010       .  S
Zn1197     O1213   2.054       .  S
Zn1198     O1201   1.980       .  S
Zn1198     O1203   2.061       .  S
Zn1198     O1205   2.025       .  S
Zn1198     O1209   2.057       .  S
Zn1199     O1201   1.966       .  S
Zn1199     O1204   2.052       .  S
Zn1199     O1207   2.019       .  S
Zn1199     O1210   2.033       .  S
Zn1200     O1201   1.938       .  S
Zn1200     O1208   1.992       .  S
Zn1200     O1211   1.998       .  S
Zn1200     O1212   2.022       .  S
O1202      C1214   1.277       .  A
O1203      C1215   1.278       .  A
O1204      C1216   1.278       .  A
O1205      C1214   1.275       .  A
O1206      C1216   1.272       .  A
O1207      C1215   1.273       .  A
O1208      C1217   1.273       .  A
O1209      C1218   1.278       .  A
O1210      C1217   1.275       .  A
O1211      C1218   1.271       .  A
O1212      C1219   1.273       .  A
O1213      C1219   1.277       .  A
C1214      C1912   1.477       .  S
C1215      C1930   1.485       .  S
C1216      C2166   1.480       .  S
C1217      C1896   1.476       .  S
C1218      C1878   1.479       .  S
C1219      C4272   1.486       .  S
Zn1220     O1224   1.936       .  S
Zn1220     O1225   1.976       .  S
Zn1220     O1229   1.997       .  S
Zn1220     O1236   1.973       .  S
Zn1221     O1224   1.976       .  S
Zn1221     O1226   2.030       .  S
Zn1221     O1228   2.051       .  S
Zn1221     O1232   2.013       .  S
Zn1222     O1224   1.954       .  S
Zn1222     O1227   2.032       .  S
Zn1222     O1230   2.007       .  S
Zn1222     O1233   2.017       .  S
Zn1223     O1224   1.977       .  S
Zn1223     O1231   2.044       .  S
Zn1223     O1234   2.022       .  S
Zn1223     O1235   2.050       .  S
O1225      C1237   1.269       .  A
O1226      C1238   1.276       .  A
O1227      C1239   1.275       .  A
O1228      C1237   1.275       .  A
O1229      C1239   1.269       .  A
O1230      C1238   1.272       .  A
O1231      C1240   1.277       .  A
O1232      C1241   1.275       .  A
O1233      C1240   1.273       .  A
O1234      C1241   1.274       .  A
O1235      C1242   1.277       .  A
O1236      C1242   1.267       .  A
C1237      C2076   1.482       .  S
C1238      C1914   1.473       .  S
C1239      C4218   1.474       .  S
C1240      C1842   1.481       .  S
C1241      C1858   1.475       .  S
C1242      C1894   1.470       .  S
Zn1243     O1247   1.954       .  S
Zn1243     O1248   1.991       .  S
Zn1243     O1252   2.010       .  S
Zn1243     O1259   2.034       .  S
Zn1244     O1247   1.989       .  S
Zn1244     O1249   2.056       .  S
Zn1244     O1251   2.054       .  S
Zn1244     O1255   2.058       .  S
Zn1245     O1247   1.972       .  S
Zn1245     O1250   2.035       .  S
Zn1245     O1253   2.028       .  S
Zn1245     O1256   2.021       .  S
Zn1246     O1247   1.960       .  S
Zn1246     O1254   2.002       .  S
Zn1246     O1257   2.002       .  S
Zn1246     O1258   2.051       .  S
O1248      C1260   1.272       .  A
O1249      C1261   1.278       .  A
O1250      C1262   1.275       .  A
O1251      C1260   1.278       .  A
O1252      C1262   1.273       .  A
O1253      C1261   1.274       .  A
O1254      C1263   1.273       .  A
O1255      C1264   1.278       .  A
O1256      C1263   1.273       .  A
O1257      C1264   1.272       .  A
O1258      C1265   1.276       .  A
O1259      C1265   1.274       .  A
C1260      C1804   1.482       .  S
C1261      C1932   1.487       .  S
C1262      C1966   1.479       .  S
C1263      C1824   1.473       .  S
C1264      C1786   1.479       .  S
C1265      C2472   1.487       .  S
Zn1266     O1270   1.941       .  S
Zn1266     O1271   2.001       .  S
Zn1266     O1275   2.002       .  S
Zn1266     O1282   2.011       .  S
Zn1267     O1270   1.960       .  S
Zn1267     O1272   2.023       .  S
Zn1267     O1274   2.026       .  S
Zn1267     O1278   2.036       .  S
Zn1268     O1270   1.970       .  S
Zn1268     O1273   2.061       .  S
Zn1268     O1276   2.015       .  S
Zn1268     O1279   2.054       .  S
Zn1269     O1270   1.945       .  S
Zn1269     O1277   1.991       .  S
Zn1269     O1280   2.011       .  S
Zn1269     O1281   2.010       .  S
O1271      C1283   1.273       .  A
O1272      C1284   1.276       .  A
O1273      C1285   1.278       .  A
O1274      C1283   1.274       .  A
O1275      C1285   1.270       .  A
O1276      C1284   1.273       .  A
O1277      C1286   1.273       .  A
O1278      C1287   1.274       .  A
O1279      C1286   1.278       .  A
O1280      C1287   1.272       .  A
O1281      C1288   1.271       .  A
O1282      C1288   1.275       .  A
C1283      C1822   1.475   1_655  S
C1284      C1860   1.474       .  S
C1285      C2040   1.482       .  S
C1286      C1806   1.480       .  S
C1287      C1768   1.481       .  S
C1288      C2418   1.474       .  S
Zn1289     O1293   1.965       .  S
Zn1289     O1294   2.017       .  S
Zn1289     O1298   2.015       .  S
Zn1289     O1305   2.041       .  S
Zn1290     O1293   1.965       .  S
Zn1290     O1295   2.013       .  S
Zn1290     O1297   2.023       .  S
Zn1290     O1301   2.021       .  S
Zn1291     O1293   1.970   1_545  S
Zn1291     O1296   2.017       .  S
Zn1291     O1299   2.037       .  S
Zn1291     O1302   2.047       .  S
Zn1292     O1293   1.943   1_545  S
Zn1292     O1300   2.004       .  S
Zn1292     O1303   1.995   1_545  S
Zn1292     O1304   1.999   1_545  S
O1294      C1306   1.274       .  A
O1295      C1307   1.272       .  A
O1296      C1308   1.273       .  A
O1297      C1306   1.273       .  A
O1298      C1308   1.275   1_565  A
O1299      C1307   1.277   1_545  A
O1300      C1309   1.271       .  A
O1301      C1310   1.273       .  A
O1302      C1309   1.277       .  A
O1303      C1310   1.272       .  A
O1304      C1311   1.272       .  A
O1305      C1311   1.275       .  A
C1306      C1732   1.478       .  S
C1307      C4036   1.480       .  S
C1308      C1696   1.476       .  S
C1309      C1876   1.480       .  S
C1310      C1714   1.473       .  S
C1311      C1752   1.482       .  S
Zn1312     O1316   1.965   1_545  S
Zn1312     O1317   2.037       .  S
Zn1312     O1321   2.025   1_545  S
Zn1312     O1328   2.023       .  S
Zn1313     O1316   1.942       .  S
Zn1313     O1318   2.013       .  S
Zn1313     O1320   1.995       .  S
Zn1313     O1324   1.981       .  S
Zn1314     O1316   1.960       .  S
Zn1314     O1319   2.003       .  S
Zn1314     O1322   2.039       .  S
Zn1314     O1325   2.006       .  S
Zn1315     O1316   1.978   1_545  S
Zn1315     O1323   2.023       .  S
Zn1315     O1326   2.034       .  S
Zn1315     O1327   2.046       .  S
O1317      C1329   1.277   1_545  A
O1318      C1330   1.271       .  A
O1319      C1331   1.271       .  A
O1320      C1329   1.271       .  A
O1321      C1331   1.275       .  A
O1322      C1330   1.274       .  A
O1323      C1332   1.276   1_545  A
O1324      C1333   1.271   1_565  A
O1325      C1332   1.272       .  A
O1326      C1333   1.274       .  A
O1327      C1334   1.276       .  A
O1328      C1334   1.273       .  A
C1329      C4002   1.473       .  S
C1330      C1660   1.484       .  S
C1331      C1698   1.473       .  S
C1332      C1678   1.472       .  S
C1333      C1716   1.476       .  S
C1334      C1840   1.482       .  S
Zn1335     O1339   1.978       .  S
Zn1335     O1340   2.030       .  S
Zn1335     O1344   2.053       .  S
Zn1335     O1351   2.054       .  S
Zn1336     O1339   1.968   1_565  S
Zn1336     O1341   2.043       .  S
Zn1336     O1343   2.014       .  S
Zn1336     O1347   2.020       .  S
Zn1337     O1339   1.940   1_565  S
Zn1337     O1342   1.985   1_565  S
Zn1337     O1345   2.001       .  S
Zn1337     O1348   2.003   1_565  S
Zn1338     O1339   1.952       .  S
Zn1338     O1346   2.034       .  S
Zn1338     O1349   2.011       .  S
Zn1338     O1350   2.007       .  S
O1340      C1352   1.275       .  A
O1341      C1353   1.276       .  A
O1342      C1354   1.271       .  A
O1343      C1352   1.274   1_565  A
O1344      C1354   1.277       .  A
O1345      C1353   1.270       .  A
O1346      C1355   1.274       .  A
O1347      C1356   1.273       .  A
O1348      C1355   1.272       .  A
O1349      C1356   1.274   1_545  A
O1350      C1357   1.272       .  A
O1351      C1357   1.278       .  A
C1352      C1750   1.478       .  S
C1353      C1642   1.476       .  S
C1354      C1626   1.481       .  S
C1355      C2274   1.479       .  S
C1356      C1606   1.475       .  S
C1357      C1788   1.480       .  S
Zn1358     O1362   1.968       .  S
Zn1358     O1363   2.031       .  S
Zn1358     O1367   2.024       .  S
Zn1358     O1374   2.019       .  S
Zn1359     O1362   1.939   1_565  S
Zn1359     O1364   1.993       .  S
Zn1359     O1366   1.988       .  S
Zn1359     O1370   1.991       .  S
Zn1360     O1362   1.966       .  S
Zn1360     O1365   2.028       .  S
Zn1360     O1368   2.043       .  S
Zn1360     O1371   2.011       .  S
Zn1361     O1362   1.969   1_565  S
Zn1361     O1369   2.026       .  S
Zn1361     O1372   2.050       .  S
Zn1361     O1373   2.011       .  S
O1363      C1375   1.273       .  A
O1364      C1376   1.270   1_565  A
O1365      C1377   1.275       .  A
O1366      C1375   1.270   1_565  A
O1367      C1377   1.273       .  A
O1368      C1376   1.277       .  A
O1369      C1378   1.276       .  A
O1370      C1379   1.270       .  A
O1371      C1378   1.272   1_545  A
O1372      C1379   1.275       .  A
O1373      C1380   1.272       .  A
O1374      C1380   1.275   1_545  A
C1375      C1608   1.474       .  S
C1376      C2238   1.474       .  S
C1377      C1770   1.479       .  S
C1378      C1624   1.475   1_565  S
C1379      C1588   1.482       .  S
C1380      C1680   1.472       .  S
Zn1381     O1385   1.942   1_655  S
Zn1381     O1386   2.004       .  S
Zn1381     O1390   2.016       .  S
Zn1381     O1397   1.987       .  S
Zn1382     O1385   1.962       .  S
Zn1382     O1387   2.021       .  S
Zn1382     O1389   2.050       .  S
Zn1382     O1393   2.010       .  S
Zn1383     O1385   1.966       .  S
Zn1383     O1388   2.026       .  S
Zn1383     O1391   2.001       .  S
Zn1383     O1394   2.027       .  S
Zn1384     O1385   1.972   1_655  S
Zn1384     O1392   2.013   1_655  S
Zn1384     O1395   2.047   1_655  S
Zn1384     O1396   2.042       .  S
O1386      C1398   1.273   1_655  A
O1387      C1399   1.275       .  A
O1388      C1400   1.274       .  A
O1389      C1398   1.277       .  A
O1390      C1400   1.272   1_655  A
O1391      C1399   1.271       .  A
O1392      C1401   1.273       .  A
O1393      C1402   1.272       .  A
O1394      C1401   1.275       .  A
O1395      C1402   1.277       .  A
O1396      C1403   1.276       .  A
O1397      C1403   1.272       .  A
C1398      C1662   1.483   1_455  S
C1399      C1554   1.468       .  S
C1400      C4470   1.477   1_455  S
C1401      C2110   1.476       .  S
C1402      C1572   1.480       .  S
C1403      C1536   1.478       .  S
Zn1404     O1408   1.939       .  S
Zn1404     O1409   1.982       .  S
Zn1404     O1413   2.013       .  S
Zn1404     O1420   2.000       .  S
Zn1405     O1408   1.974       .  S
Zn1405     O1410   2.036       .  S
Zn1405     O1412   2.038       .  S
Zn1405     O1416   2.031       .  S
Zn1406     O1408   1.951       .  S
Zn1406     O1411   2.024       .  S
Zn1406     O1414   1.999       .  S
Zn1406     O1417   2.003       .  S
Zn1407     O1408   1.963       .  S
Zn1407     O1415   2.025       .  S
Zn1407     O1418   2.020       .  S
Zn1407     O1419   2.039       .  S
O1409      C1421   1.271       .  A
O1410      C1422   1.276       .  A
O1411      C1423   1.272       .  A
O1412      C1421   1.275       .  A
O1413      C1423   1.272       .  A
O1414      C1422   1.271       .  A
O1415      C1424   1.275       .  A
O1416      C1425   1.275       .  A
O1417      C1424   1.271       .  A
O1418      C1425   1.275       .  A
O1419      C1426   1.276       .  A
O1420      C1426   1.271       .  A
C1421      C1552   1.477       .  S
C1422      C1516   1.472       .  S
C1423      C1734   1.479       .  S
C1424      C1534   1.471       .  S
C1425      C2058   1.480       .  S
C1426      C4524   1.476       .  S
Zn1427     O1431   1.955       .  S
Zn1427     O1432   2.033       .  S
Zn1427     O1436   2.006       .  S
Zn1427     O1443   2.011       .  S
Zn1428     O1431   1.944       .  S
Zn1428     O1433   2.005       .  S
Zn1428     O1435   2.008       .  S
Zn1428     O1439   1.981       .  S
Zn1429     O1431   1.958       .  S
Zn1429     O1434   2.009       .  S
Zn1429     O1437   2.031       .  S
Zn1429     O1440   2.001       .  S
Zn1430     O1431   1.985       .  S
Zn1430     O1438   2.056       .  S
Zn1430     O1441   2.054       .  S
Zn1430     O1442   2.053       .  S
O1432      C1444   1.275       .  A
O1433      C1445   1.271       .  A
O1434      C1446   1.271       .  A
O1435      C1444   1.271       .  A
O1436      C1446   1.273       .  A
O1437      C1445   1.273       .  A
O1438      C1447   1.278       .  A
O1439      C1448   1.272       .  A
O1440      C1447   1.272       .  A
O1441      C1448   1.278       .  A
O1442      C1449   1.278       .  A
O1443      C1449   1.272       .  A
C1444      C2688   1.477       .  S
C1445      C1644   1.480       .  S
C1446      C1480   1.468   1_455  S
C1447      C1570   1.478       .  S
C1448      C1498   1.479       .  S
C1449      C1986   1.481       .  S
Zn1450     O1454   1.939       .  S
Zn1450     O1455   1.998       .  S
Zn1450     O1459   1.986       .  S
Zn1450     O1466   2.001       .  S
Zn1451     O1454   1.963       .  S
Zn1451     O1456   2.022       .  S
Zn1451     O1458   2.032       .  S
Zn1451     O1462   2.013       .  S
Zn1452     O1454   1.968       .  S
Zn1452     O1457   2.025       .  S
Zn1452     O1460   2.014       .  S
Zn1452     O1463   2.022       .  S
Zn1453     O1454   1.962       .  S
Zn1453     O1461   2.010       .  S
Zn1453     O1464   2.023       .  S
Zn1453     O1465   2.044       .  S
O1455      C1467   1.271       .  A
O1456      C1468   1.274       .  A
O1457      C1469   1.272       .  A
O1458      C1467   1.275       .  A
O1459      C1469   1.271       .  A
O1460      C1468   1.272       .  A
O1461      C1470   1.272       .  A
O1462      C1471   1.273       .  A
O1463      C1470   1.275       .  A
O1464      C1471   1.275       .  A
O1465      C1472   1.275       .  A
O1466      C1472   1.272       .  A
C1467      C2634   1.473       .  S
C1468      C1948   1.475       .  S
C1469      C1482   1.474       .  S
C1470      C1518   1.474       .  S
C1471      C1500   1.475       .  S
C1472      C1590   1.481       .  S
C1473      C1481   1.479       .  S
C1473      C1474   1.403       .  A
C1473      C1478   1.406       .  A
C1474      C1475   1.395       .  A
C1474      H1483   1.084       .  S
C1475      C1476   1.404       .  A
C1475      H1484   1.082       .  S
C1476      C1479   1.477       .  S
C1476      C1477   1.402       .  A
C1477      C1478   1.397       .  A
C1477      H1485   1.084       .  S
C1478      H1486   1.082       .  S
C1479      H1487   1.087       .  S
C1479      C1480   1.343       .  D
C1480      H1488   1.086       .  S
C1481      H1489   1.087       .  S
C1481      C1482   1.346       .  D
C1482      H1490   1.085       .  S
C1491      C1499   1.482       .  S
C1491      C1492   1.400       .  A
C1491      C1496   1.408       .  A
C1492      C1493   1.396       .  A
C1492      H1501   1.083       .  S
C1493      C1494   1.404       .  A
C1493      H1502   1.084       .  S
C1494      C1497   1.481       .  S
C1494      C1495   1.405       .  A
C1495      C1496   1.399       .  A
C1495      H1503   1.082       .  S
C1496      H1504   1.082       .  S
C1497      H1505   1.088       .  S
C1497      C1498   1.350       .  D
C1498      H1506   1.085       .  S
C1499      H1507   1.087       .  S
C1499      C1500   1.344       .  D
C1500      H1508   1.086       .  S
C1509      C1517   1.481       .  S
C1509      C1510   1.401       .  A
C1509      C1514   1.407       .  A
C1510      C1511   1.398       .  A
C1510      H1519   1.083       .  S
C1511      C1512   1.407       .  A
C1511      H1520   1.083       .  S
C1512      C1515   1.481       .  S
C1512      C1513   1.401       .  A
C1513      C1514   1.398       .  A
C1513      H1521   1.083       .  S
C1514      H1522   1.083       .  S
C1515      H1523   1.087       .  S
C1515      C1516   1.342       .  D
C1516      H1524   1.087       .  S
C1517      H1525   1.087       .  S
C1517      C1518   1.343       .  D
C1518      H1526   1.087       .  S
C1527      C1535   1.481       .  S
C1527      C1528   1.403       .  A
C1527      C1532   1.406       .  A
C1528      C1529   1.395       .  A
C1528      H1537   1.084       .  S
C1529      C1530   1.406       .  A
C1529      H1538   1.082       .  S
C1530      C1533   1.483       .  S
C1530      C1531   1.404       .  A
C1531      C1532   1.400       .  A
C1531      H1539   1.083       .  S
C1532      H1540   1.082       .  S
C1533      H1541   1.087       .  S
C1533      C1534   1.344       .  D
C1534      H1542   1.086       .  S
C1535      H1543   1.087       .  S
C1535      C1536   1.348       .  D
C1536      H1544   1.085       .  S
C1545      C1553   1.481       .  S
C1545      C1546   1.404       .  A
C1545      C1550   1.404       .  A
C1546      C1547   1.399       .  A
C1546      H1555   1.083       .  S
C1547      C1548   1.407       .  A
C1547      H1556   1.081       .  S
C1548      C1551   1.483       .  S
C1548      C1549   1.404       .  A
C1549      C1550   1.394       .  A
C1549      H1557   1.084       .  S
C1550      H1558   1.082       .  S
C1551      H1559   1.087       .  S
C1551      C1552   1.348       .  D
C1552      H1560   1.084       .  S
C1553      H1561   1.087       .  S
C1553      C1554   1.343       .  D
C1554      H1562   1.086       .  S
C1563      C1571   1.488       .  S
C1563      C1564   1.402       .  A
C1563      C1568   1.409       .  A
C1564      C1565   1.400       .  A
C1564      H1573   1.083   1_455  S
C1565      C1566   1.408       .  A
C1565      H1574   1.083       .  S
C1566      C1569   1.486       .  S
C1566      C1567   1.402       .  A
C1567      C1568   1.401       .  A
C1567      H1575   1.083       .  S
C1568      H1576   1.083       .  S
C1569      H1577   1.086       .  S
C1569      C1570   1.344       .  D
C1570      H1578   1.087       .  S
C1571      H1579   1.087       .  S
C1571      C1572   1.345       .  D
C1572      H1580   1.087       .  S
C1581      C1589   1.488       .  S
C1581      C1582   1.406       .  A
C1581      C1586   1.405       .  A
C1582      C1583   1.400       .  A
C1582      H1591   1.083       .  S
C1583      C1584   1.406       .  A
C1583      H1592   1.081       .  S
C1584      C1587   1.488       .  S
C1584      C1585   1.406       .  A
C1585      C1586   1.399       .  A
C1585      H1593   1.083       .  S
C1586      H1594   1.082       .  S
C1587      H1595   1.087       .  S
C1587      C1588   1.352       .  D
C1588      H1596   1.084       .  S
C1589      H1597   1.087       .  S
C1589      C1590   1.350       .  D
C1590      H1598   1.085       .  S
C1599      C1607   1.481       .  S
C1599      C1600   1.404       .  A
C1599      C1604   1.405   1_565  A
C1600      C1601   1.399       .  A
C1600      H1609   1.083       .  S
C1601      C1602   1.406       .  A
C1601      H1610   1.082       .  S
C1602      C1605   1.482   1_565  S
C1602      C1603   1.403   1_565  A
C1603      C1604   1.396       .  A
C1603      H1611   1.084       .  S
C1604      H1612   1.082       .  S
C1605      H1613   1.087       .  S
C1605      C1606   1.345   1_545  D
C1606      H1614   1.085       .  S
C1607      H1615   1.087       .  S
C1607      C1608   1.347   1_565  D
C1608      H1616   1.085       .  S
C1617      C1625   1.483       .  S
C1617      C1618   1.405   1_565  A
C1617      C1622   1.405       .  A
C1618      C1619   1.400   1_455  A
C1618      H1627   1.082       .  S
C1619      C1620   1.408   1_545  A
C1619      H1628   1.083       .  S
C1620      C1623   1.481       .  S
C1620      C1621   1.400       .  A
C1621      C1622   1.397   1_655  A
C1621      H1629   1.083       .  S
C1622      H1630   1.083       .  S
C1623      H1631   1.087       .  S
C1623      C1624   1.343   1_565  D
C1624      H1632   1.087       .  S
C1625      H1633   1.087       .  S
C1625      C1626   1.351   1_565  D
C1626      H1634   1.085       .  S
C1635      C1643   1.486       .  S
C1635      C1636   1.403       .  A
C1635      C1640   1.407       .  A
C1636      C1637   1.398       .  A
C1636      H1645   1.084       .  S
C1637      C1638   1.408       .  A
C1637      H1646   1.082       .  S
C1638      C1641   1.489       .  S
C1638      C1639   1.404       .  A
C1639      C1640   1.401       .  A
C1639      H1647   1.083       .  S
C1640      H1648   1.082       .  S
C1641      H1649   1.087       .  S
C1641      C1642   1.345       .  D
C1642      H1650   1.086       .  S
C1643      H1651   1.087       .  S
C1643      C1644   1.348       .  D
C1644      H1652   1.085       .  S
C1653      C1661   1.489       .  S
C1653      C1654   1.405       .  A
C1653      C1658   1.406       .  A
C1654      C1655   1.400       .  A
C1654      H1663   1.083       .  S
C1655      C1656   1.407       .  A
C1655      H1664   1.081       .  S
C1656      C1659   1.492       .  S
C1656      C1657   1.406       .  A
C1657      C1658   1.401       .  A
C1657      H1665   1.083       .  S
C1658      H1666   1.082   1_655  S
C1659      H1667   1.087       .  S
C1659      C1660   1.351       .  D
C1660      H1668   1.084       .  S
C1661      H1669   1.087       .  S
C1661      C1662   1.351       .  D
C1662      H1670   1.085   1_655  S
C1671      C1679   1.479       .  S
C1671      C1672   1.402       .  A
C1671      C1676   1.407       .  A
C1672      C1673   1.397       .  A
C1672      H1681   1.083       .  S
C1673      C1674   1.406       .  A
C1673      H1682   1.083       .  S
C1674      C1677   1.478       .  S
C1674      C1675   1.401       .  A
C1675      C1676   1.397       .  A
C1675      H1683   1.083       .  S
C1676      H1684   1.083       .  S
C1677      H1685   1.087       .  S
C1677      C1678   1.342   1_545  D
C1678      H1686   1.087       .  S
C1679      H1687   1.087       .  S
C1679      C1680   1.343   1_545  D
C1680      H1688   1.086       .  S
C1689      C1697   1.491       .  S
C1689      C1690   1.405   1_565  A
C1689      C1694   1.409       .  A
C1690      C1691   1.400       .  A
C1690      H1699   1.083       .  S
C1691      C1692   1.407   1_545  A
C1691      H1700   1.081       .  S
C1692      C1695   1.485       .  S
C1692      C1693   1.402       .  A
C1693      C1694   1.395       .  A
C1693      H1701   1.084       .  S
C1694      H1702   1.079       .  S
C1695      H1703   1.087       .  S
C1695      C1696   1.345   1_565  D
C1696      H1704   1.084       .  S
C1697      H1705   1.087   1_565  S
C1697      C1698   1.347       .  D
C1698      H1706   1.082       .  S
C1707      C1715   1.480       .  S
C1707      C1708   1.403       .  A
C1707      C1712   1.406   1_565  A
C1708      C1709   1.394       .  A
C1708      H1717   1.084       .  S
C1709      C1710   1.405       .  A
C1709      H1718   1.081       .  S
C1710      C1713   1.481       .  S
C1710      C1711   1.404   1_565  A
C1711      C1712   1.398       .  A
C1711      H1719   1.083       .  S
C1712      H1720   1.081       .  S
C1713      H1721   1.087   1_565  S
C1713      C1714   1.347       .  D
C1714      H1722   1.085       .  S
C1715      H1723   1.087   1_455  S
C1715      C1716   1.348   1_465  D
C1716      H1724   1.084       .  S
C1725      C1733   1.488       .  S
C1725      C1726   1.404       .  A
C1725      C1730   1.407       .  A
C1726      C1727   1.399       .  A
C1726      H1735   1.083       .  S
C1727      C1728   1.407       .  A
C1727      H1736   1.081       .  S
C1728      C1731   1.488       .  S
C1728      C1729   1.404       .  A
C1729      C1730   1.399       .  A
C1729      H1737   1.083       .  S
C1730      H1738   1.081       .  S
C1731      H1739   1.087       .  S
C1731      C1732   1.348       .  D
C1732      H1740   1.084       .  S
C1733      H1741   1.087       .  S
C1733      C1734   1.348       .  D
C1734      H1742   1.084       .  S
C1743      C1751   1.490       .  S
C1743      C1744   1.405       .  A
C1743      C1748   1.408       .  A
C1744      C1745   1.396       .  A
C1744      H1753   1.084   1_565  S
C1745      C1746   1.405       .  A
C1745      H1754   1.081   1_565  S
C1746      C1749   1.488       .  S
C1746      C1747   1.405       .  A
C1747      C1748   1.402       .  A
C1747      H1755   1.083       .  S
C1748      H1756   1.080       .  S
C1749      H1757   1.087       .  S
C1749      C1750   1.349   1_565  D
C1750      H1758   1.085       .  S
C1751      H1759   1.087   1_565  S
C1751      C1752   1.350       .  D
C1752      H1760   1.083       .  S
C1761      C1769   1.487       .  S
C1761      C1762   1.404       .  A
C1761      C1766   1.406       .  A
C1762      C1763   1.400       .  A
C1762      H1771   1.083       .  S
C1763      C1764   1.407       .  A
C1763      H1772   1.082       .  S
C1764      C1767   1.487       .  S
C1764      C1765   1.404       .  A
C1765      C1766   1.400       .  A
C1765      H1773   1.083       .  S
C1766      H1774   1.082       .  S
C1767      H1775   1.087       .  S
C1767      C1768   1.348       .  D
C1768      H1776   1.086       .  S
C1769      H1777   1.087       .  S
C1769      C1770   1.346       .  D
C1770      H1778   1.086       .  S
C1779      C1787   1.489       .  S
C1779      C1780   1.402       .  A
C1779      C1784   1.409       .  A
C1780      C1781   1.401       .  A
C1780      H1789   1.083       .  S
C1781      C1782   1.409       .  A
C1781      H1790   1.083       .  S
C1782      C1785   1.488       .  S
C1782      C1783   1.402       .  A
C1783      C1784   1.401       .  A
C1783      H1791   1.083       .  S
C1784      H1792   1.083       .  S
C1785      H1793   1.086       .  S
C1785      C1786   1.344       .  D
C1786      H1794   1.087       .  S
C1787      H1795   1.086       .  S
C1787      C1788   1.345       .  D
C1788      H1796   1.087       .  S
C1797      C1805   1.485       .  S
C1797      C1798   1.404       .  A
C1797      C1802   1.405       .  A
C1798      C1799   1.399       .  A
C1798      H1807   1.082       .  S
C1799      C1800   1.406       .  A
C1799      H1808   1.083       .  S
C1800      C1803   1.488       .  S
C1800      C1801   1.406       .  A
C1801      C1802   1.399       .  A
C1801      H1809   1.081       .  S
C1802      H1810   1.083       .  S
C1803      H1811   1.087       .  S
C1803      C1804   1.352       .  D
C1804      H1812   1.084       .  S
C1805      H1813   1.087       .  S
C1805      C1806   1.350       .  D
C1806      H1814   1.085       .  S
C1815      C1823   1.480       .  S
C1815      C1816   1.404       .  A
C1815      C1820   1.405       .  A
C1816      C1817   1.398       .  A
C1816      H1825   1.084       .  S
C1817      C1818   1.405       .  A
C1817      H1826   1.082       .  S
C1818      C1821   1.480       .  S
C1818      C1819   1.404       .  A
C1819      C1820   1.397       .  A
C1819      H1827   1.083       .  S
C1820      H1828   1.082       .  S
C1821      H1829   1.087       .  S
C1821      C1822   1.346       .  D
C1822      H1830   1.086       .  S
C1823      H1831   1.087       .  S
C1823      C1824   1.346       .  D
C1824      H1832   1.086       .  S
C1833      C1841   1.490       .  S
C1833      C1834   1.404       .  A
C1833      C1838   1.408       .  A
C1834      C1835   1.402       .  A
C1834      H1843   1.083       .  S
C1835      C1836   1.407       .  A
C1835      H1844   1.083       .  S
C1836      C1839   1.488       .  S
C1836      C1837   1.403       .  A
C1837      C1838   1.401       .  A
C1837      H1845   1.083       .  S
C1838      H1846   1.082       .  S
C1839      H1847   1.087       .  S
C1839      C1840   1.346       .  D
C1840      H1848   1.087       .  S
C1841      H1849   1.087       .  S
C1841      C1842   1.346       .  D
C1842      H1850   1.086       .  S
C1851      C1859   1.482       .  S
C1851      C1852   1.402       .  A
C1851      C1856   1.406       .  A
C1852      C1853   1.397       .  A
C1852      H1861   1.083       .  S
C1853      C1854   1.408       .  A
C1853      H1862   1.081       .  S
C1854      C1857   1.485       .  S
C1854      C1855   1.404       .  A
C1855      C1856   1.398       .  A
C1855      H1863   1.083       .  S
C1856      H1864   1.082       .  S
C1857      H1865   1.087       .  S
C1857      C1858   1.346       .  D
C1858      H1866   1.085       .  S
C1859      H1867   1.087       .  S
C1859      C1860   1.344       .  D
C1860      H1868   1.086       .  S
C1869      C1877   1.493       .  S
C1869      C1870   1.403       .  A
C1869      C1874   1.410       .  A
C1870      C1871   1.401       .  A
C1870      H1879   1.083       .  S
C1871      C1872   1.411       .  A
C1871      H1880   1.080       .  S
C1872      C1875   1.494       .  S
C1872      C1873   1.403       .  A
C1873      C1874   1.399       .  A
C1873      H1881   1.083       .  S
C1874      H1882   1.081       .  S
C1875      H1883   1.087       .  S
C1875      C1876   1.346       .  D
C1876      H1884   1.084       .  S
C1877      H1885   1.087       .  S
C1877      C1878   1.345       .  D
C1878      H1886   1.085       .  S
C1887      C1895   1.487       .  S
C1887      C1888   1.408       .  A
C1887      C1892   1.406       .  A
C1888      C1889   1.397       .  A
C1888      H1897   1.079       .  S
C1889      C1890   1.408       .  A
C1889      H1898   1.082       .  S
C1890      C1893   1.484       .  S
C1890      C1891   1.399       .  A
C1891      C1892   1.397       .  A
C1891      H1899   1.083       .  S
C1892      H1900   1.083       .  S
C1893      H1901   1.087       .  S
C1893      C1894   1.340       .  D
C1894      H1902   1.086       .  S
C1895      H1903   1.087       .  S
C1895      C1896   1.349       .  D
C1896      H1904   1.082       .  S
C1905      C1913   1.485   1_455  S
C1905      C1906   1.403       .  A
C1905      C1910   1.406       .  A
C1906      C1907   1.400       .  A
C1906      H1915   1.083       .  S
C1907      C1908   1.408       .  A
C1907      H1916   1.082       .  S
C1908      C1911   1.483       .  S
C1908      C1909   1.402       .  A
C1909      C1910   1.395       .  A
C1909      H1917   1.084       .  S
C1910      H1918   1.082       .  S
C1911      H1919   1.087       .  S
C1911      C1912   1.346       .  D
C1912      H1920   1.085       .  S
C1913      H1921   1.087       .  S
C1913      C1914   1.345       .  D
C1914      H1922   1.086       .  S
C1923      C1931   1.492       .  S
C1923      C1924   1.403       .  A
C1923      C1928   1.408       .  A
C1924      C1925   1.402       .  A
C1924      H1933   1.083       .  S
C1925      C1926   1.408       .  A
C1925      H1934   1.083       .  S
C1926      C1929   1.494       .  S
C1926      C1927   1.405       .  A
C1927      C1928   1.405       .  A
C1927      H1935   1.083       .  S
C1928      H1936   1.083       .  S
C1929      H1937   1.086       .  S
C1929      C1930   1.347       .  D
C1930      H1938   1.087       .  S
C1931      H1939   1.087       .  S
C1931      C1932   1.347       .  D
C1932      H1940   1.087       .  S
C1941      C1949   1.481       .  S
C1941      C1942   1.402       .  A
C1941      C1946   1.406       .  A
C1942      C1943   1.398       .  A
C1942      H1951   1.083       .  S
C1943      C1944   1.407       .  A
C1943      H1952   1.082       .  S
C1944      C1947   1.482       .  S
C1944      C1945   1.402       .  A
C1945      C1946   1.398       .  A
C1945      H1953   1.083       .  S
C1946      H1954   1.082       .  S
C1947      H1955   1.087       .  S
C1947      C1948   1.344       .  D
C1948      H1956   1.086       .  S
C1949      H1957   1.087       .  S
C1949      C1950   1.345       .  D
C1950      H1958   1.086       .  S
C1959      C1967   1.486       .  S
C1959      C1960   1.405       .  A
C1959      C1964   1.406       .  A
C1960      C1961   1.398       .  A
C1960      H1969   1.084       .  S
C1961      C1962   1.406       .  A
C1961      H1970   1.082       .  S
C1962      C1965   1.487       .  S
C1962      C1963   1.406       .  A
C1963      C1964   1.400       .  A
C1963      H1971   1.083       .  S
C1964      H1972   1.082       .  S
C1965      H1973   1.087       .  S
C1965      C1966   1.349       .  D
C1966      H1974   1.085       .  S
C1967      H1975   1.087       .  S
C1967      C1968   1.349       .  D
C1968      H1976   1.085       .  S
C1977      C1985   1.490       .  S
C1977      C1978   1.403       .  A
C1977      C1982   1.409       .  A
C1978      C1979   1.402       .  A
C1978      H1987   1.083       .  S
C1979      C1980   1.407       .  A
C1979      H1988   1.083       .  S
C1980      C1983   1.488       .  S
C1980      C1981   1.403       .  A
C1981      C1982   1.401       .  A
C1981      H1989   1.083       .  S
C1982      H1990   1.082       .  S
C1983      H1991   1.087       .  S
C1983      C1984   1.345       .  D
C1984      H1992   1.087       .  S
C1985      H1993   1.087       .  S
C1985      C1986   1.346       .  D
C1986      H1994   1.086       .  S
C1995      C2003   1.483       .  S
C1995      C1996   1.405       .  A
C1995      C2000   1.405       .  A
C1996      C1997   1.401       .  A
C1996      H2005   1.082       .  S
C1997      C1998   1.409       .  A
C1997      H2006   1.083       .  S
C1998      C2001   1.486       .  S
C1998      C1999   1.401       .  A
C1999      C2000   1.398       .  A
C1999      H2007   1.083       .  S
C2000      H2008   1.084       .  S
C2001      H2009   1.087       .  S
C2001      C2002   1.344       .  D
C2002      H2010   1.087       .  S
C2003      H2011   1.088       .  S
C2003      C2004   1.349       .  D
C2004      H2012   1.085       .  S
C2013      C2021   1.487       .  S
C2013      C2014   1.405       .  A
C2013      C2018   1.406       .  A
C2014      C2015   1.402       .  A
C2014      H2023   1.083       .  S
C2015      C2016   1.407       .  A
C2015      H2024   1.082       .  S
C2016      C2019   1.487       .  S
C2016      C2017   1.405       .  A
C2017      C2018   1.398       .  A
C2017      H2025   1.084       .  S
C2018      H2026   1.082       .  S
C2019      H2027   1.087       .  S
C2019      C2020   1.349       .  D
C2020      H2028   1.085       .  S
C2021      H2029   1.087       .  S
C2021      C2022   1.348       .  D
C2022      H2030   1.086       .  S
C2031      C2039   1.490       .  S
C2031      C2032   1.402       .  A
C2031      C2036   1.409       .  A
C2032      C2033   1.401       .  A
C2032      H2041   1.083       .  S
C2033      C2034   1.409       .  A
C2033      H2042   1.083       .  S
C2034      C2037   1.490       .  S
C2034      C2035   1.402       .  A
C2035      C2036   1.402       .  A
C2035      H2043   1.083   1_655  S
C2036      H2044   1.083       .  S
C2037      H2045   1.086   1_655  S
C2037      C2038   1.344       .  D
C2038      H2046   1.087       .  S
C2039      H2047   1.086       .  S
C2039      C2040   1.344       .  D
C2040      H2048   1.087       .  S
C2049      C2057   1.486       .  S
C2049      C2050   1.403       .  A
C2049      C2054   1.407       .  A
C2050      C2051   1.398       .  A
C2050      H2059   1.083       .  S
C2051      C2052   1.405       .  A
C2051      H2060   1.083       .  S
C2052      C2055   1.484       .  S
C2052      C2053   1.404       .  A
C2053      C2054   1.401       .  A
C2053      H2061   1.083       .  S
C2054      H2062   1.082       .  S
C2055      H2063   1.087       .  S
C2055      C2056   1.346       .  D
C2056      H2064   1.086       .  S
C2057      H2065   1.087       .  S
C2057      C2058   1.347       .  D
C2058      H2066   1.086       .  S
C2067      C2075   1.484       .  S
C2067      C2068   1.405       .  A
C2067      C2072   1.405       .  A
C2068      C2069   1.395       .  A
C2068      H2077   1.084       .  S
C2069      C2070   1.404       .  A
C2069      H2078   1.082       .  S
C2070      C2073   1.485       .  S
C2070      C2071   1.406       .  A
C2071      C2072   1.402       .  A
C2071      H2079   1.083       .  S
C2072      H2080   1.082       .  S
C2073      H2081   1.087       .  S
C2073      C2074   1.349       .  D
C2074      H2082   1.085       .  S
C2075      H2083   1.087       .  S
C2075      C2076   1.351       .  D
C2076      H2084   1.085       .  S
C2085      C2093   1.482       .  S
C2085      C2086   1.403       .  A
C2085      C2090   1.406       .  A
C2086      C2087   1.398       .  A
C2086      H2095   1.083       .  S
C2087      C2088   1.406       .  A
C2087      H2096   1.082       .  S
C2088      C2091   1.483       .  S
C2088      C2089   1.403       .  A
C2089      C2090   1.399       .  A
C2089      H2097   1.083       .  S
C2090      H2098   1.082       .  S
C2091      H2099   1.087       .  S
C2091      C2092   1.346       .  D
C2092      H2100   1.086       .  S
C2093      H2101   1.087       .  S
C2093      C2094   1.346       .  D
C2094      H2102   1.086       .  S
C2103      C2111   1.490       .  S
C2103      C2104   1.403       .  A
C2103      C2108   1.409       .  A
C2104      C2105   1.397       .  A
C2104      H2113   1.084       .  S
C2105      C2106   1.409       .  A
C2105      H2114   1.080       .  S
C2106      C2109   1.491       .  S
C2106      C2107   1.404       .  A
C2107      C2108   1.399       .  A
C2107      H2115   1.083       .  S
C2108      H2116   1.080       .  S
C2109      H2117   1.087       .  S
C2109      C2110   1.347       .  D
C2110      H2118   1.083       .  S
C2111      H2119   1.087       .  S
C2111      C2112   1.346       .  D
C2112      H2120   1.083       .  S
C2121      C2129   1.481       .  S
C2121      C2122   1.403       .  A
C2121      C2126   1.406       .  A
C2122      C2123   1.394       .  A
C2122      H2131   1.084       .  S
C2123      C2124   1.406       .  A
C2123      H2132   1.079       .  S
C2124      C2127   1.483       .  S
C2124      C2125   1.405       .  A
C2125      C2126   1.396       .  A
C2125      H2133   1.084       .  S
C2126      H2134   1.080       .  S
C2127      H2135   1.087       .  S
C2127      C2128   1.348       .  D
C2128      H2136   1.082       .  S
C2129      H2137   1.087       .  S
C2129      C2130   1.348       .  D
C2130      H2138   1.083       .  S
C2139      C2147   1.482       .  S
C2139      C2140   1.401       .  A
C2139      C2144   1.406       .  A
C2140      C2141   1.397       .  A
C2140      H2149   1.083       .  S
C2141      C2142   1.408       .  A
C2141      H2150   1.081       .  S
C2142      C2145   1.485       .  S
C2142      C2143   1.404       .  A
C2143      C2144   1.398       .  A
C2143      H2151   1.083       .  S
C2144      H2152   1.082       .  S
C2145      H2153   1.087       .  S
C2145      C2146   1.345       .  D
C2146      H2154   1.085       .  S
C2147      H2155   1.087       .  S
C2147      C2148   1.342       .  D
C2148      H2156   1.086       .  S
C2157      C2165   1.495       .  S
C2157      C2158   1.405       .  A
C2157      C2162   1.409       .  A
C2158      C2159   1.402       .  A
C2158      H2167   1.083       .  S
C2159      C2160   1.409       .  A
C2159      H2168   1.081       .  S
C2160      C2163   1.494       .  S
C2160      C2161   1.404       .  A
C2161      C2162   1.401       .  A
C2161      H2169   1.083       .  S
C2162      H2170   1.081       .  S
C2163      H2171   1.087       .  S
C2163      C2164   1.348       .  D
C2164      H2172   1.085       .  S
C2165      H2173   1.087       .  S
C2165      C2166   1.347       .  D
C2166      H2174   1.085       .  S
C2175      C2183   1.493       .  S
C2175      C2176   1.403       .  A
C2175      C2180   1.408       .  A
C2176      C2177   1.401       .  A
C2176      H2185   1.083       .  S
C2177      C2178   1.410       .  A
C2177      H2186   1.081       .  S
C2178      C2181   1.497       .  S
C2178      C2179   1.406       .  A
C2179      C2180   1.402       .  A
C2179      H2187   1.083       .  S
C2180      H2188   1.082       .  S
C2181      H2189   1.087       .  S
C2181      C2182   1.349       .  D
C2182      H2190   1.084       .  S
C2183      H2191   1.087       .  S
C2183      C2184   1.346       .  D
C2184      H2192   1.086       .  S
C2193      C2201   1.486       .  S
C2193      C2194   1.404   1_545  A
C2193      C2198   1.407       .  A
C2194      C2195   1.396       .  A
C2194      H2203   1.084       .  S
C2195      C2196   1.406   1_565  A
C2195      H2204   1.081       .  S
C2196      C2199   1.490       .  S
C2196      C2197   1.406       .  A
C2197      C2198   1.402       .  A
C2197      H2205   1.083       .  S
C2198      H2206   1.081       .  S
C2199      H2207   1.087       .  S
C2199      C2200   1.348   1_545  D
C2200      H2208   1.085       .  S
C2201      H2209   1.087   1_545  S
C2201      C2202   1.348       .  D
C2202      H2210   1.085       .  S
C2211      C2219   1.486       .  S
C2211      C2212   1.406   1_545  A
C2211      C2216   1.406       .  A
C2212      C2213   1.396       .  A
C2212      H2221   1.084       .  S
C2213      C2214   1.404   1_565  A
C2213      H2222   1.082       .  S
C2214      C2217   1.484       .  S
C2214      C2215   1.405       .  A
C2215      C2216   1.400       .  A
C2215      H2223   1.083       .  S
C2216      H2224   1.081       .  S
C2217      H2225   1.087       .  S
C2217      C2218   1.350   1_545  D
C2218      H2226   1.085       .  S
C2219      H2227   1.087   1_545  S
C2219      C2220   1.352       .  D
C2220      H2228   1.084       .  S
C2229      C2237   1.489       .  S
C2229      C2230   1.401       .  A
C2229      C2234   1.409       .  A
C2230      C2231   1.399   1_554  A
C2230      H2239   1.083       .  S
C2231      C2232   1.412       .  A
C2231      H2240   1.080       .  S
C2232      C2235   1.491       .  S
C2232      C2233   1.402       .  A
C2233      C2234   1.398   1_556  A
C2233      H2241   1.083   1_545  S
C2234      H2242   1.081       .  S
C2235      H2243   1.087   1_545  S
C2235      C2236   1.343       .  D
C2236      H2244   1.084       .  S
C2237      H2245   1.087       .  S
C2237      C2238   1.344       .  D
C2238      H2246   1.085   1_545  S
C2247      C2255   1.487       .  S
C2247      C2248   1.404       .  A
C2247      C2252   1.407       .  A
C2248      C2249   1.400       .  A
C2248      H2257   1.083       .  S
C2249      C2250   1.406       .  A
C2249      H2258   1.083       .  S
C2250      C2253   1.488       .  S
C2250      C2251   1.405       .  A
C2251      C2252   1.402       .  A
C2251      H2259   1.083       .  S
C2252      H2260   1.082       .  S
C2253      H2261   1.087       .  S
C2253      C2254   1.347       .  D
C2254      H2262   1.086   1_545  S
C2255      H2263   1.087       .  S
C2255      C2256   1.348       .  D
C2256      H2264   1.086   1_545  S
C2265      C2273   1.484       .  S
C2265      C2266   1.403   1_545  A
C2265      C2270   1.408       .  A
C2266      C2267   1.397   1_554  A
C2266      H2275   1.084       .  S
C2267      C2268   1.406   1_565  A
C2267      H2276   1.083       .  S
C2268      C2271   1.484       .  S
C2268      C2269   1.403       .  A
C2269      C2270   1.401   1_556  A
C2269      H2277   1.083       .  S
C2270      H2278   1.082       .  S
C2271      H2279   1.087       .  S
C2271      C2272   1.343   1_545  D
C2272      H2280   1.087       .  S
C2273      H2281   1.087   1_545  S
C2273      C2274   1.347       .  D
C2274      H2282   1.085       .  S
C2283      C2291   1.488       .  S
C2283      C2284   1.408       .  A
C2283      C2288   1.404   1_545  A
C2284      C2285   1.401       .  A
C2284      H2293   1.083       .  S
C2285      C2286   1.405   1_655  A
C2285      H2294   1.081   1_655  S
C2286      C2289   1.486       .  S
C2286      C2287   1.406   1_445  A
C2287      C2288   1.395       .  A
C2287      H2295   1.084   1_655  S
C2288      H2296   1.080       .  S
C2289      H2297   1.087   1_545  S
C2289      C2290   1.353       .  D
C2290      H2298   1.084       .  S
C2291      H2299   1.087       .  S
C2291      C2292   1.353   1_545  D
C2292      H2300   1.083       .  S
C2301      C2309   1.478       .  S
C2301      C2302   1.403   1_565  A
C2301      C2306   1.404       .  A
C2302      C2303   1.398       .  A
C2302      H2311   1.083       .  S
C2303      C2304   1.404   1_545  A
C2303      H2312   1.083       .  S
C2304      C2307   1.480       .  S
C2304      C2305   1.404       .  A
C2305      C2306   1.400       .  A
C2305      H2313   1.083       .  S
C2306      H2314   1.083       .  S
C2307      H2315   1.087       .  S
C2307      C2308   1.344   1_565  D
C2308      H2316   1.086       .  S
C2309      H2317   1.088       .  S
C2309      C2310   1.344       .  D
C2310      H2318   1.086       .  S
C2319      C2327   1.485       .  S
C2319      C2320   1.401       .  A
C2319      C2324   1.409       .  A
C2320      C2321   1.399       .  A
C2320      H2329   1.083       .  S
C2321      C2322   1.410       .  A
C2321      H2330   1.082       .  S
C2322      C2325   1.485       .  S
C2322      C2323   1.400       .  A
C2323      C2324   1.397       .  A
C2323      H2331   1.083       .  S
C2324      H2332   1.082       .  S
C2325      H2333   1.087       .  S
C2325      C2326   1.342       .  D
C2326      H2334   1.086   1_545  S
C2327      H2335   1.087       .  S
C2327      C2328   1.342       .  D
C2328      H2336   1.086   1_545  S
C2337      C2345   1.497       .  S
C2337      C2338   1.406       .  A
C2337      C2342   1.410       .  A
C2338      C2339   1.401       .  A
C2338      H2347   1.083       .  S
C2339      C2340   1.403       .  A
C2339      H2348   1.083       .  S
C2340      C2343   1.494       .  S
C2340      C2341   1.409       .  A
C2341      C2342   1.401       .  A
C2341      H2349   1.081       .  S
C2342      H2350   1.079       .  S
C2343      H2351   1.087       .  S
C2343      C2344   1.345       .  D
C2344      H2352   1.085       .  S
C2345      H2353   1.087   1_455  S
C2345      C2346   1.350       .  D
C2346      H2354   1.082       .  S
C2355      C2363   1.496       .  S
C2355      C2356   1.408       .  A
C2355      C2360   1.407       .  A
C2356      C2357   1.402       .  A
C2356      H2365   1.083       .  S
C2357      C2358   1.406       .  A
C2357      H2366   1.080       .  S
C2358      C2361   1.495       .  S
C2358      C2359   1.407       .  A
C2359      C2360   1.401       .  A
C2359      H2367   1.083       .  S
C2360      H2368   1.080       .  S
C2361      H2369   1.087       .  S
C2361      C2362   1.354       .  D
C2362      H2370   1.083       .  S
C2363      H2371   1.087       .  S
C2363      C2364   1.354       .  D
C2364      H2372   1.083       .  S
C2373      C2381   1.492       .  S
C2373      C2374   1.406       .  A
C2373      C2378   1.408       .  A
C2374      C2375   1.401       .  A
C2374      H2383   1.083       .  S
C2375      C2376   1.402       .  A
C2375      H2384   1.083       .  S
C2376      C2379   1.488       .  S
C2376      C2377   1.407       .  A
C2377      C2378   1.396       .  A
C2377      H2385   1.082       .  S
C2378      H2386   1.080       .  S
C2379      H2387   1.087       .  S
C2379      C2380   1.346       .  D
C2380      H2388   1.086       .  S
C2381      H2389   1.087       .  S
C2381      C2382   1.347       .  D
C2382      H2390   1.083       .  S
C2391      C2399   1.482       .  S
C2391      C2392   1.400       .  A
C2391      C2396   1.408       .  A
C2392      C2393   1.397       .  A
C2392      H2401   1.083       .  S
C2393      C2394   1.408       .  A
C2393      H2402   1.083       .  S
C2394      C2397   1.483       .  S
C2394      C2395   1.401       .  A
C2395      C2396   1.399       .  A
C2395      H2403   1.083       .  S
C2396      H2404   1.083       .  S
C2397      H2405   1.087       .  S
C2397      C2398   1.342       .  D
C2398      H2406   1.087       .  S
C2399      H2407   1.087       .  S
C2399      C2400   1.341       .  D
C2400      H2408   1.087       .  S
C2409      C2417   1.484       .  S
C2409      C2410   1.401       .  A
C2409      C2414   1.409       .  A
C2410      C2411   1.394   1_554  A
C2410      H2419   1.084       .  S
C2411      C2412   1.407       .  A
C2411      H2420   1.081       .  S
C2412      C2415   1.486       .  S
C2412      C2413   1.403       .  A
C2413      C2414   1.400   1_556  A
C2413      H2421   1.083       .  S
C2414      H2422   1.081       .  S
C2415      H2423   1.087       .  S
C2415      C2416   1.345       .  D
C2416      H2424   1.085       .  S
C2417      H2425   1.087       .  S
C2417      C2418   1.344       .  D
C2418      H2426   1.084       .  S
C2427      C2435   1.483       .  S
C2427      C2428   1.404       .  A
C2427      C2432   1.406       .  A
C2428      C2429   1.394       .  A
C2428      H2437   1.084       .  S
C2429      C2430   1.404       .  A
C2429      H2438   1.082       .  S
C2430      C2433   1.484       .  S
C2430      C2431   1.406       .  A
C2431      C2432   1.402       .  A
C2431      H2439   1.083       .  S
C2432      H2440   1.082       .  S
C2433      H2441   1.087       .  S
C2433      C2434   1.347       .  D
C2434      H2442   1.086       .  S
C2435      H2443   1.087       .  S
C2435      C2436   1.350       .  D
C2436      H2444   1.085       .  S
C2445      C2453   1.487       .  S
C2445      C2446   1.402       .  A
C2445      C2450   1.410       .  A
C2446      C2447   1.398       .  A
C2446      H2455   1.083       .  S
C2447      C2448   1.410       .  A
C2447      H2456   1.081       .  S
C2448      C2451   1.487       .  S
C2448      C2449   1.400       .  A
C2449      C2450   1.396       .  A
C2449      H2457   1.084       .  S
C2450      H2458   1.080       .  S
C2451      H2459   1.087       .  S
C2451      C2452   1.342       .  D
C2452      H2460   1.084       .  S
C2453      H2461   1.087       .  S
C2453      C2454   1.343       .  D
C2454      H2462   1.084       .  S
C2463      C2471   1.494       .  S
C2463      C2464   1.404       .  A
C2463      C2468   1.408       .  A
C2464      C2465   1.403   1_554  A
C2464      H2473   1.083       .  S
C2465      C2466   1.409       .  A
C2465      H2474   1.082       .  S
C2466      C2469   1.496       .  S
C2466      C2467   1.405       .  A
C2467      C2468   1.405   1_556  A
C2467      H2475   1.083       .  S
C2468      H2476   1.082       .  S
C2469      H2477   1.087       .  S
C2469      C2470   1.348       .  D
C2470      H2478   1.086       .  S
C2471      H2479   1.087       .  S
C2471      C2472   1.349       .  D
C2472      H2480   1.086       .  S
C2481      C2489   1.485       .  S
C2481      C2482   1.406       .  A
C2481      C2486   1.404       .  A
C2482      C2483   1.400       .  A
C2482      H2491   1.083       .  S
C2483      C2484   1.405       .  A
C2483      H2492   1.081       .  S
C2484      C2487   1.485       .  S
C2484      C2485   1.406       .  A
C2485      C2486   1.395       .  A
C2485      H2493   1.084       .  S
C2486      H2494   1.081       .  S
C2487      H2495   1.087       .  S
C2487      C2488   1.353       .  D
C2488      H2496   1.084       .  S
C2489      H2497   1.087       .  S
C2489      C2490   1.350       .  D
C2490      H2498   1.084       .  S
C2499      C2507   1.487       .  S
C2499      C2500   1.404       .  A
C2499      C2504   1.408       .  A
C2500      C2501   1.398       .  A
C2500      H2509   1.083       .  S
C2501      C2502   1.407       .  A
C2501      H2510   1.081       .  S
C2502      C2505   1.484       .  S
C2502      C2503   1.402       .  A
C2503      C2504   1.397       .  A
C2503      H2511   1.084       .  S
C2504      H2512   1.081       .  S
C2505      H2513   1.087       .  S
C2505      C2506   1.344       .  D
C2506      H2514   1.085       .  S
C2507      H2515   1.087       .  S
C2507      C2508   1.346       .  D
C2508      H2516   1.084       .  S
C2517      C2525   1.490       .  S
C2517      C2518   1.403       .  A
C2517      C2522   1.408       .  A
C2518      C2519   1.403       .  A
C2518      H2527   1.083       .  S
C2519      C2520   1.409       .  A
C2519      H2528   1.083       .  S
C2520      C2523   1.489       .  S
C2520      C2521   1.402       .  A
C2521      C2522   1.402       .  A
C2521      H2529   1.083       .  S
C2522      H2530   1.083       .  S
C2523      H2531   1.086       .  S
C2523      C2524   1.345       .  D
C2524      H2532   1.087       .  S
C2525      H2533   1.086       .  S
C2525      C2526   1.345       .  D
C2526      H2534   1.087       .  S
C2535      C2543   1.494       .  S
C2535      C2536   1.402       .  A
C2535      C2540   1.411       .  A
C2536      C2537   1.402       .  A
C2536      H2545   1.083       .  S
C2537      C2538   1.411       .  A
C2537      H2546   1.081       .  S
C2538      C2541   1.494       .  S
C2538      C2539   1.402       .  A
C2539      C2540   1.400       .  A
C2539      H2547   1.083       .  S
C2540      H2548   1.082       .  S
C2541      H2549   1.087       .  S
C2541      C2542   1.346       .  D
C2542      H2550   1.085       .  S
C2543      H2551   1.086       .  S
C2543      C2544   1.344       .  D
C2544      H2552   1.086       .  S
C2553      C2561   1.489       .  S
C2553      C2554   1.404       .  A
C2553      C2558   1.407       .  A
C2554      C2555   1.403       .  A
C2554      H2563   1.083       .  S
C2555      C2556   1.410       .  A
C2555      H2564   1.081       .  S
C2556      C2559   1.487       .  S
C2556      C2557   1.401       .  A
C2557      C2558   1.395       .  A
C2557      H2565   1.084       .  S
C2558      H2566   1.082       .  S
C2559      H2567   1.087       .  S
C2559      C2560   1.343       .  D
C2560      H2568   1.085       .  S
C2561      H2569   1.087       .  S
C2561      C2562   1.346       .  D
C2562      H2570   1.085       .  S
C2571      C2579   1.492       .  S
C2571      C2572   1.402       .  A
C2571      C2576   1.411       .  A
C2572      C2573   1.399       .  A
C2572      H2581   1.083       .  S
C2573      C2574   1.409       .  A
C2573      H2582   1.082       .  S
C2574      C2577   1.490       .  S
C2574      C2575   1.402       .  A
C2575      C2576   1.399       .  A
C2575      H2583   1.083       .  S
C2576      H2584   1.081       .  S
C2577      H2585   1.087       .  S
C2577      C2578   1.344       .  D
C2578      H2586   1.085       .  S
C2579      H2587   1.087       .  S
C2579      C2580   1.344       .  D
C2580      H2588   1.084       .  S
C2589      C2597   1.485       .  S
C2589      C2590   1.405       .  A
C2589      C2594   1.405       .  A
C2590      C2591   1.397       .  A
C2590      H2599   1.084       .  S
C2591      C2592   1.405       .  A
C2591      H2600   1.081       .  S
C2592      C2595   1.484   1_655  S
C2592      C2593   1.405       .  A
C2593      C2594   1.396       .  A
C2593      H2601   1.084       .  S
C2594      H2602   1.080       .  S
C2595      H2603   1.087       .  S
C2595      C2596   1.349       .  D
C2596      H2604   1.084       .  S
C2597      H2605   1.087       .  S
C2597      C2598   1.349       .  D
C2598      H2606   1.084       .  S
C2607      C2615   1.486       .  S
C2607      C2608   1.406       .  A
C2607      C2612   1.404       .  A
C2608      C2609   1.399       .  A
C2608      H2617   1.080       .  S
C2609      C2610   1.406       .  A
C2609      H2618   1.083       .  S
C2610      C2613   1.487       .  S
C2610      C2611   1.406       .  A
C2611      C2612   1.395       .  A
C2611      H2619   1.080       .  S
C2612      H2620   1.084       .  S
C2613      H2621   1.087       .  S
C2613      C2614   1.350       .  D
C2614      H2622   1.083       .  S
C2615      H2623   1.087       .  S
C2615      C2616   1.350       .  D
C2616      H2624   1.083       .  S
C2625      C2633   1.482       .  S
C2625      C2626   1.402       .  A
C2625      C2630   1.407       .  A
C2626      C2627   1.399   1_554  A
C2626      H2635   1.083       .  S
C2627      C2628   1.407       .  A
C2627      H2636   1.083       .  S
C2628      C2631   1.479       .  S
C2628      C2629   1.400       .  A
C2629      C2630   1.397   1_556  A
C2629      H2637   1.083       .  S
C2630      H2638   1.083       .  S
C2631      H2639   1.087       .  S
C2631      C2632   1.343       .  D
C2632      H2640   1.087       .  S
C2633      H2641   1.087       .  S
C2633      C2634   1.343       .  D
C2634      H2642   1.087       .  S
C2643      C2651   1.490       .  S
C2643      C2644   1.402       .  A
C2643      C2648   1.408       .  A
C2644      C2645   1.399       .  A
C2644      H2653   1.083       .  S
C2645      C2646   1.410       .  A
C2645      H2654   1.081       .  S
C2646      C2649   1.494       .  S
C2646      C2647   1.404       .  A
C2647      C2648   1.401       .  A
C2647      H2655   1.083       .  S
C2648      H2656   1.082       .  S
C2649      H2657   1.087       .  S
C2649      C2650   1.346       .  D
C2650      H2658   1.084       .  S
C2651      H2659   1.087       .  S
C2651      C2652   1.344       .  D
C2652      H2660   1.086       .  S
C2661      C2669   1.482       .  S
C2661      C2662   1.402       .  A
C2661      C2666   1.408       .  A
C2662      C2663   1.395       .  A
C2662      H2671   1.084       .  S
C2663      C2664   1.406       .  A
C2663      H2672   1.082       .  S
C2664      C2667   1.481       .  S
C2664      C2665   1.402       .  A
C2665      C2666   1.398       .  A
C2665      H2673   1.083       .  S
C2666      H2674   1.081       .  S
C2667      H2675   1.087       .  S
C2667      C2668   1.343       .  D
C2668      H2676   1.086       .  S
C2669      H2677   1.087       .  S
C2669      C2670   1.344       .  D
C2670      H2678   1.085       .  S
C2679      C2687   1.485       .  S
C2679      C2680   1.402       .  A
C2679      C2684   1.407       .  A
C2680      C2681   1.399   1_554  A
C2680      H2689   1.083       .  S
C2681      C2682   1.408       .  A
C2681      H2690   1.082       .  S
C2682      C2685   1.486       .  S
C2682      C2683   1.403       .  A
C2683      C2684   1.399   1_556  A
C2683      H2691   1.083       .  S
C2684      H2692   1.082       .  S
C2685      H2693   1.087       .  S
C2685      C2686   1.345       .  D
C2686      H2694   1.086       .  S
C2687      H2695   1.087       .  S
C2687      C2688   1.344       .  D
C2688      H2696   1.086       .  S
C2697      C2705   1.486       .  S
C2697      C2698   1.401       .  A
C2697      C2702   1.409       .  A
C2698      C2699   1.399       .  A
C2698      H2707   1.083       .  S
C2699      C2700   1.409       .  A
C2699      H2708   1.083       .  S
C2700      C2703   1.486       .  S
C2700      C2701   1.401       .  A
C2701      C2702   1.399       .  A
C2701      H2709   1.083       .  S
C2702      H2710   1.082       .  S
C2703      H2711   1.087       .  S
C2703      C2704   1.342       .  D
C2704      H2712   1.087       .  S
C2705      H2713   1.087       .  S
C2705      C2706   1.343       .  D
C2706      H2714   1.086       .  S
C2715      C2723   1.482       .  S
C2715      C2716   1.403       .  A
C2715      C2720   1.406       .  A
C2716      C2717   1.397       .  A
C2716      H2725   1.083       .  S
C2717      C2718   1.406       .  A
C2717      H2726   1.082       .  S
C2718      C2721   1.483       .  S
C2718      C2719   1.404       .  A
C2719      C2720   1.399       .  A
C2719      H2727   1.083       .  S
C2720      H2728   1.082       .  S
C2721      H2729   1.087       .  S
C2721      C2722   1.345       .  D
C2722      H2730   1.086       .  S
C2723      H2731   1.087       .  S
C2723      C2724   1.346       .  D
C2724      H2732   1.086       .  S
C2733      C2741   1.482       .  S
C2733      C2734   1.399       .  A
C2733      C2738   1.408       .  A
C2734      C2735   1.397       .  A
C2734      H2743   1.083       .  S
C2735      C2736   1.405       .  A
C2735      H2744   1.083       .  S
C2736      C2739   1.481       .  S
C2736      C2737   1.405       .  A
C2737      C2738   1.398       .  A
C2737      H2745   1.082       .  S
C2738      H2746   1.083       .  S
C2739      H2747   1.088       .  S
C2739      C2740   1.348       .  D
C2740      H2748   1.085       .  S
C2741      H2749   1.087       .  S
C2741      C2742   1.342       .  D
C2742      H2750   1.087       .  S
C2751      C2759   1.496       .  S
C2751      C2752   1.403       .  A
C2751      C2756   1.410       .  A
C2752      C2753   1.401       .  A
C2752      H2761   1.083       .  S
C2753      C2754   1.412       .  A
C2753      H2762   1.080       .  S
C2754      C2757   1.500       .  S
C2754      C2755   1.404       .  A
C2755      C2756   1.402       .  A
C2755      H2763   1.083       .  S
C2756      H2764   1.081       .  S
C2757      H2765   1.087       .  S
C2757      C2758   1.347       .  D
C2758      H2766   1.083       .  S
C2759      H2767   1.087       .  S
C2759      C2760   1.347       .  D
C2760      H2768   1.084       .  S
C2769      C2777   1.485       .  S
C2769      C2770   1.403       .  A
C2769      C2774   1.407       .  A
C2770      C2771   1.396       .  A
C2770      H2779   1.084       .  S
C2771      C2772   1.407       .  A
C2771      H2780   1.081       .  S
C2772      C2775   1.489       .  S
C2772      C2773   1.405       .  A
C2773      C2774   1.401       .  A
C2773      H2781   1.083       .  S
C2774      H2782   1.081       .  S
C2775      H2783   1.087       .  S
C2775      C2776   1.347       .  D
C2776      H2784   1.085       .  S
C2777      H2785   1.087       .  S
C2777      C2778   1.348       .  D
C2778      H2786   1.085       .  S
C2787      C2795   1.487       .  S
C2787      C2788   1.405       .  A
C2787      C2792   1.405       .  A
C2788      C2789   1.401       .  A
C2788      H2797   1.083       .  S
C2789      C2790   1.406       .  A
C2789      H2798   1.082       .  S
C2790      C2793   1.488       .  S
C2790      C2791   1.405       .  A
C2791      C2792   1.399       .  A
C2791      H2799   1.083       .  S
C2792      H2800   1.082       .  S
C2793      H2801   1.087       .  S
C2793      C2794   1.349       .  D
C2794      H2802   1.085       .  S
C2795      H2803   1.087       .  S
C2795      C2796   1.349       .  D
C2796      H2804   1.085       .  S
C2805      C2813   1.482       .  S
C2805      C2806   1.400       .  A
C2805      C2810   1.407       .  A
C2806      C2807   1.400       .  A
C2806      H2815   1.083       .  S
C2807      C2808   1.409       .  A
C2807      H2816   1.082       .  S
C2808      C2811   1.486       .  S
C2808      C2809   1.402       .  A
C2809      C2810   1.400       .  A
C2809      H2817   1.083       .  S
C2810      H2818   1.083       .  S
C2811      H2819   1.087       .  S
C2811      C2812   1.345       .  D
C2812      H2820   1.087       .  S
C2813      H2821   1.086       .  S
C2813      C2814   1.342       .  D
C2814      H2822   1.088       .  S
C2823      C2831   1.487       .  S
C2823      C2824   1.406       .  A
C2823      C2828   1.406       .  A
C2824      C2825   1.402       .  A
C2824      H2833   1.083       .  S
C2825      C2826   1.407       .  A
C2825      H2834   1.082       .  S
C2826      C2829   1.482       .  S
C2826      C2827   1.402       .  A
C2827      C2828   1.394       .  A
C2827      H2835   1.084       .  S
C2828      H2836   1.081       .  S
C2829      H2837   1.087       .  S
C2829      C2830   1.345       .  D
C2830      H2838   1.085       .  S
C2831      H2839   1.087       .  S
C2831      C2832   1.346       .  D
C2832      H2840   1.084       .  S
C2841      C2849   1.488       .  S
C2841      C2842   1.405       .  A
C2841      C2846   1.406       .  A
C2842      C2843   1.394       .  A
C2842      H2851   1.084       .  S
C2843      C2844   1.405       .  A
C2843      H2852   1.080       .  S
C2844      C2847   1.490       .  S
C2844      C2845   1.408       .  A
C2845      C2846   1.402       .  A
C2845      H2853   1.083       .  S
C2846      H2854   1.080       .  S
C2847      H2855   1.087       .  S
C2847      C2848   1.352   1_455  D
C2848      H2856   1.083   1_655  S
C2849      H2857   1.087       .  S
C2849      C2850   1.353       .  D
C2850      H2858   1.084       .  S
C2859      C2867   1.484       .  S
C2859      C2860   1.401       .  A
C2859      C2864   1.409       .  A
C2860      C2861   1.398       .  A
C2860      H2869   1.083       .  S
C2861      C2862   1.408       .  A
C2861      H2870   1.083       .  S
C2862      C2865   1.483       .  S
C2862      C2863   1.400       .  A
C2863      C2864   1.398       .  A
C2863      H2871   1.083       .  S
C2864      H2872   1.082       .  S
C2865      H2873   1.087       .  S
C2865      C2866   1.341       .  D
C2866      H2874   1.087       .  S
C2867      H2875   1.087       .  S
C2867      C2868   1.342       .  D
C2868      H2876   1.087       .  S
C2877      C2885   1.493       .  S
C2877      C2878   1.405       .  A
C2877      C2882   1.407   1_655  A
C2878      C2879   1.401   1_554  A
C2878      H2887   1.083       .  S
C2879      C2880   1.410       .  A
C2879      H2888   1.080       .  S
C2880      C2883   1.495       .  S
C2880      C2881   1.405   1_655  A
C2881      C2882   1.399   1_556  A
C2881      H2889   1.083       .  S
C2882      H2890   1.081       .  S
C2883      H2891   1.087   1_655  S
C2883      C2884   1.349       .  D
C2884      H2892   1.083       .  S
C2885      H2893   1.087       .  S
C2885      C2886   1.350   1_655  D
C2886      H2894   1.084       .  S
C2895      C2903   1.484       .  S
C2895      C2896   1.402       .  A
C2895      C2900   1.407       .  A
C2896      C2897   1.397       .  A
C2896      H2905   1.083       .  S
C2897      C2898   1.407       .  A
C2897      H2906   1.082       .  S
C2898      C2901   1.488       .  S
C2898      C2899   1.404       .  A
C2899      C2900   1.401       .  A
C2899      H2907   1.083       .  S
C2900      H2908   1.082       .  S
C2901      H2909   1.087       .  S
C2901      C2902   1.345       .  D
C2902      H2910   1.086       .  S
C2903      H2911   1.087       .  S
C2903      C2904   1.346       .  D
C2904      H2912   1.086       .  S
C2913      C2921   1.495       .  S
C2913      C2914   1.406       .  A
C2913      C2918   1.408       .  A
C2914      C2915   1.401       .  A
C2914      H2923   1.083       .  S
C2915      C2916   1.408       .  A
C2915      H2924   1.080   1_455  S
C2916      C2919   1.493       .  S
C2916      C2917   1.405       .  A
C2917      C2918   1.399       .  A
C2917      H2925   1.083       .  S
C2918      H2926   1.080       .  S
C2919      H2927   1.087       .  S
C2919      C2920   1.350   1_455  D
C2920      H2928   1.083       .  S
C2921      H2929   1.087       .  S
C2921      C2922   1.349       .  D
C2922      H2930   1.083       .  S
C2931      C2939   1.487       .  S
C2931      C2932   1.404       .  A
C2931      C2936   1.407       .  A
C2932      C2933   1.398       .  A
C2932      H2941   1.084       .  S
C2933      C2934   1.407       .  A
C2933      H2942   1.081       .  S
C2934      C2937   1.487       .  S
C2934      C2935   1.404       .  A
C2935      C2936   1.399       .  A
C2935      H2943   1.083       .  S
C2936      H2944   1.081       .  S
C2937      H2945   1.087       .  S
C2937      C2938   1.347       .  D
C2938      H2946   1.084       .  S
C2939      H2947   1.087       .  S
C2939      C2940   1.348       .  D
C2940      H2948   1.084       .  S
C2949      C2957   1.484       .  S
C2949      C2950   1.401       .  A
C2949      C2954   1.407       .  A
C2950      C2951   1.394   1_554  A
C2950      H2959   1.084       .  S
C2951      C2952   1.409       .  A
C2951      H2960   1.080       .  S
C2952      C2955   1.489       .  S
C2952      C2953   1.404       .  A
C2953      C2954   1.400   1_556  A
C2953      H2961   1.083       .  S
C2954      H2962   1.081       .  S
C2955      H2963   1.087       .  S
C2955      C2956   1.345       .  D
C2956      H2964   1.083       .  S
C2957      H2965   1.087       .  S
C2957      C2958   1.345       .  D
C2958      H2966   1.085       .  S
C2967      C2975   1.489       .  S
C2967      C2968   1.402       .  A
C2967      C2972   1.411       .  A
C2968      C2969   1.398       .  A
C2968      H2977   1.083       .  S
C2969      C2970   1.409       .  A
C2969      H2978   1.082       .  S
C2970      C2973   1.485       .  S
C2970      C2971   1.400       .  A
C2971      C2972   1.397       .  A
C2971      H2979   1.083       .  S
C2972      H2980   1.081       .  S
C2973      H2981   1.087       .  S
C2973      C2974   1.341       .  D
C2974      H2982   1.086       .  S
C2975      H2983   1.087       .  S
C2975      C2976   1.343       .  D
C2976      H2984   1.084       .  S
C2985      C2993   1.484       .  S
C2985      C2986   1.405       .  A
C2985      C2990   1.405       .  A
C2986      C2987   1.401       .  A
C2986      H2995   1.083       .  S
C2987      C2988   1.406       .  A
C2987      H2996   1.082       .  S
C2988      C2991   1.482       .  S
C2988      C2989   1.403       .  A
C2989      C2990   1.394       .  A
C2989      H2997   1.084       .  S
C2990      H2998   1.082       .  S
C2991      H2999   1.087       .  S
C2991      C2992   1.349       .  D
C2992      H3000   1.085       .  S
C2993      H3001   1.087       .  S
C2993      C2994   1.346       .  D
C2994      H3002   1.086       .  S
C3003      C3011   1.479       .  S
C3003      C3004   1.403       .  A
C3003      C3008   1.405       .  A
C3004      C3005   1.397       .  A
C3004      H3013   1.083       .  S
C3005      C3006   1.405       .  A
C3005      H3014   1.082       .  S
C3006      C3009   1.479       .  S
C3006      C3007   1.403       .  A
C3007      C3008   1.396       .  A
C3007      H3015   1.084       .  S
C3008      H3016   1.082       .  S
C3009      H3017   1.087       .  S
C3009      C3010   1.346       .  D
C3010      H3018   1.085       .  S
C3011      H3019   1.087       .  S
C3011      C3012   1.346       .  D
C3012      H3020   1.086       .  S
C3021      C3029   1.489       .  S
C3021      C3022   1.404       .  A
C3021      C3026   1.409       .  A
C3022      C3023   1.396       .  A
C3022      H3031   1.084       .  S
C3023      C3024   1.406       .  A
C3023      H3032   1.081       .  S
C3024      C3027   1.488       .  S
C3024      C3025   1.405       .  A
C3025      C3026   1.401       .  A
C3025      H3033   1.083       .  S
C3026      H3034   1.080       .  S
C3027      H3035   1.087       .  S
C3027      C3028   1.349       .  D
C3028      H3036   1.085       .  S
C3029      H3037   1.087       .  S
C3029      C3030   1.349       .  D
C3030      H3038   1.083       .  S
C3039      C3047   1.488       .  S
C3039      C3040   1.403       .  A
C3039      C3044   1.408       .  A
C3040      C3041   1.402       .  A
C3040      H3049   1.083       .  S
C3041      C3042   1.408       .  A
C3041      H3050   1.083       .  S
C3042      C3045   1.489       .  S
C3042      C3043   1.403       .  A
C3043      C3044   1.402       .  A
C3043      H3051   1.083       .  S
C3044      H3052   1.083       .  S
C3045      H3053   1.086       .  S
C3045      C3046   1.345       .  D
C3046      H3054   1.087       .  S
C3047      H3055   1.086       .  S
C3047      C3048   1.344       .  D
C3048      H3056   1.087       .  S
C3057      C3065   1.490       .  S
C3057      C3058   1.403       .  A
C3057      C3062   1.409       .  A
C3058      C3059   1.398       .  A
C3058      H3067   1.083       .  S
C3059      C3060   1.409       .  A
C3059      H3068   1.081       .  S
C3060      C3063   1.489       .  S
C3060      C3061   1.403       .  A
C3061      C3062   1.400       .  A
C3061      H3069   1.083       .  S
C3062      H3070   1.081       .  S
C3063      H3071   1.087       .  S
C3063      C3064   1.344       .  D
C3064      H3072   1.085       .  S
C3065      H3073   1.087       .  S
C3065      C3066   1.346       .  D
C3066      H3074   1.084       .  S
C3075      C3083   1.488       .  S
C3075      C3076   1.404       .  A
C3075      C3080   1.407       .  A
C3076      C3077   1.400       .  A
C3076      H3085   1.083       .  S
C3077      C3078   1.407       .  A
C3077      H3086   1.082       .  S
C3078      C3081   1.489       .  S
C3078      C3079   1.404       .  A
C3079      C3080   1.400       .  A
C3079      H3087   1.083       .  S
C3080      H3088   1.082       .  S
C3081      H3089   1.087       .  S
C3081      C3082   1.348       .  D
C3082      H3090   1.085       .  S
C3083      H3091   1.087       .  S
C3083      C3084   1.347       .  D
C3084      H3092   1.086       .  S
C3093      C3101   1.483       .  S
C3093      C3094   1.403       .  A
C3093      C3098   1.408       .  A
C3094      C3095   1.395       .  A
C3094      H3103   1.084       .  S
C3095      C3096   1.406       .  A
C3095      H3104   1.083       .  S
C3096      C3099   1.482       .  S
C3096      C3097   1.403       .  A
C3097      C3098   1.400       .  A
C3097      H3105   1.083       .  S
C3098      H3106   1.082       .  S
C3099      H3107   1.087       .  S
C3099      C3100   1.343       .  D
C3100      H3108   1.086       .  S
C3101      H3109   1.087       .  S
C3101      C3102   1.347       .  D
C3102      H3110   1.085       .  S
C3111      C3119   1.482       .  S
C3111      C3112   1.403       .  A
C3111      C3116   1.407       .  A
C3112      C3113   1.395   1_655  A
C3112      H3121   1.084       .  S
C3113      C3114   1.405       .  A
C3113      H3122   1.082       .  S
C3114      C3117   1.483       .  S
C3114      C3115   1.404       .  A
C3115      C3116   1.401   1_455  A
C3115      H3123   1.083       .  S
C3116      H3124   1.082       .  S
C3117      H3125   1.087       .  S
C3117      C3118   1.344       .  D
C3118      H3126   1.086       .  S
C3119      H3127   1.087       .  S
C3119      C3120   1.349       .  D
C3120      H3128   1.085       .  S
C3129      C3137   1.485       .  S
C3129      C3130   1.401       .  A
C3129      C3134   1.408       .  A
C3130      C3131   1.399       .  A
C3130      H3139   1.083       .  S
C3131      C3132   1.411       .  A
C3131      H3140   1.081       .  S
C3132      C3135   1.487       .  S
C3132      C3133   1.401       .  A
C3133      C3134   1.396       .  A
C3133      H3141   1.083       .  S
C3134      H3142   1.082       .  S
C3135      H3143   1.087       .  S
C3135      C3136   1.342       .  D
C3136      H3144   1.084       .  S
C3137      H3145   1.087       .  S
C3137      C3138   1.342       .  D
C3138      H3146   1.086       .  S
C3147      C3155   1.490       .  S
C3147      C3148   1.404       .  A
C3147      C3152   1.408       .  A
C3148      C3149   1.397       .  A
C3148      H3157   1.084       .  S
C3149      C3150   1.408       .  A
C3149      H3158   1.081       .  S
C3150      C3153   1.491       .  S
C3150      C3151   1.404       .  A
C3151      C3152   1.401       .  A
C3151      H3159   1.083       .  S
C3152      H3160   1.080       .  S
C3153      H3161   1.087       .  S
C3153      C3154   1.346       .  D
C3154      H3162   1.085       .  S
C3155      H3163   1.087       .  S
C3155      C3156   1.348       .  D
C3156      H3164   1.084       .  S
C3165      C3173   1.488       .  S
C3165      C3166   1.406       .  A
C3165      C3170   1.405       .  A
C3166      C3167   1.397       .  A
C3166      H3175   1.084       .  S
C3167      C3168   1.405       .  A
C3167      H3176   1.080       .  S
C3168      C3171   1.488   1_455  S
C3168      C3169   1.407       .  A
C3169      C3170   1.399       .  A
C3169      H3177   1.083       .  S
C3170      H3178   1.080       .  S
C3171      H3179   1.087       .  S
C3171      C3172   1.353       .  D
C3172      H3180   1.083       .  S
C3173      H3181   1.087       .  S
C3173      C3174   1.353       .  D
C3174      H3182   1.083       .  S
C3183      C3191   1.490       .  S
C3183      C3184   1.402       .  A
C3183      C3188   1.409       .  A
C3184      C3185   1.401       .  A
C3184      H3193   1.083       .  S
C3185      C3186   1.410       .  A
C3185      H3194   1.082       .  S
C3186      C3189   1.490       .  S
C3186      C3187   1.402       .  A
C3187      C3188   1.400       .  A
C3187      H3195   1.083       .  S
C3188      H3196   1.082       .  S
C3189      H3197   1.087       .  S
C3189      C3190   1.343       .  D
C3190      H3198   1.087       .  S
C3191      H3199   1.086       .  S
C3191      C3192   1.345       .  D
C3192      H3200   1.087       .  S
C3201      C3209   1.490       .  S
C3201      C3202   1.404   1_545  A
C3201      C3206   1.408       .  A
C3202      C3203   1.400       .  A
C3202      H3211   1.083       .  S
C3203      C3204   1.409       .  A
C3203      H3212   1.081       .  S
C3204      C3207   1.491       .  S
C3204      C3205   1.404   1_565  A
C3205      C3206   1.400       .  A
C3205      H3213   1.083       .  S
C3206      H3214   1.082       .  S
C3207      H3215   1.087   1_565  S
C3207      C3208   1.347       .  D
C3208      H3216   1.085       .  S
C3209      H3217   1.087       .  S
C3209      C3210   1.347   1_545  D
C3210      H3218   1.085       .  S
C3219      C3227   1.485       .  S
C3219      C3220   1.405       .  A
C3219      C3224   1.406       .  A
C3220      C3221   1.400       .  A
C3220      H3229   1.083       .  S
C3221      C3222   1.405       .  A
C3221      H3230   1.082       .  S
C3222      C3225   1.483       .  S
C3222      C3223   1.404       .  A
C3223      C3224   1.399       .  A
C3223      H3231   1.083       .  S
C3224      H3232   1.082       .  S
C3225      H3233   1.087       .  S
C3225      C3226   1.347       .  D
C3226      H3234   1.086       .  S
C3227      H3235   1.087       .  S
C3227      C3228   1.347       .  D
C3228      H3236   1.086       .  S
C3237      C3245   1.486       .  S
C3237      C3238   1.403       .  A
C3237      C3242   1.407       .  A
C3238      C3239   1.400       .  A
C3238      H3247   1.083       .  S
C3239      C3240   1.406       .  A
C3239      H3248   1.083       .  S
C3240      C3243   1.485       .  S
C3240      C3241   1.403       .  A
C3241      C3242   1.401       .  A
C3241      H3249   1.083       .  S
C3242      H3250   1.083       .  S
C3243      H3251   1.087       .  S
C3243      C3244   1.345   1_545  D
C3244      H3252   1.087       .  S
C3245      H3253   1.087       .  S
C3245      C3246   1.346       .  D
C3246      H3254   1.086   1_545  S
C3255      C3263   1.476       .  S
C3255      C3256   1.401       .  A
C3255      C3260   1.405       .  A
C3256      C3257   1.397       .  A
C3256      H3265   1.083       .  S
C3257      C3258   1.408       .  A
C3257      H3266   1.081       .  S
C3258      C3261   1.479       .  S
C3258      C3259   1.401       .  A
C3259      C3260   1.393       .  A
C3259      H3267   1.084       .  S
C3260      H3268   1.082       .  S
C3261      H3269   1.087   1_565  S
C3261      C3262   1.342       .  D
C3262      H3270   1.085       .  S
C3263      H3271   1.087       .  S
C3263      C3264   1.342       .  D
C3264      H3272   1.086   1_565  S
C3273      C3281   1.482       .  S
C3273      C3274   1.399   1_565  A
C3273      C3278   1.410       .  A
C3274      C3275   1.394       .  A
C3274      H3283   1.083       .  S
C3275      C3276   1.410   1_545  A
C3275      H3284   1.081       .  S
C3276      C3279   1.481       .  S
C3276      C3277   1.399       .  A
C3277      C3278   1.396       .  A
C3277      H3285   1.083       .  S
C3278      H3286   1.081       .  S
C3279      H3287   1.087       .  S
C3279      C3280   1.340       .  D
C3280      H3288   1.085   1_565  S
C3281      H3289   1.087   1_565  S
C3281      C3282   1.339       .  D
C3282      H3290   1.085       .  S
C3291      C3299   1.493       .  S
C3291      C3292   1.406       .  A
C3291      C3296   1.407       .  A
C3292      C3293   1.404       .  A
C3292      H3301   1.083       .  S
C3293      C3294   1.409       .  A
C3293      H3302   1.080       .  S
C3294      C3297   1.493       .  S
C3294      C3295   1.404       .  A
C3295      C3296   1.397       .  A
C3295      H3303   1.084       .  S
C3296      H3304   1.081       .  S
C3297      H3305   1.087       .  S
C3297      C3298   1.351       .  D
C3298      H3306   1.083       .  S
C3299      H3307   1.087       .  S
C3299      C3300   1.350       .  D
C3300      H3308   1.084       .  S
C3309      C3317   1.492       .  S
C3309      C3310   1.406       .  A
C3309      C3314   1.406       .  A
C3310      C3311   1.402       .  A
C3310      H3319   1.083       .  S
C3311      C3312   1.406       .  A
C3311      H3320   1.082       .  S
C3312      C3315   1.493       .  S
C3312      C3313   1.407       .  A
C3313      C3314   1.403       .  A
C3313      H3321   1.083       .  S
C3314      H3322   1.082       .  S
C3315      H3323   1.087       .  S
C3315      C3316   1.351       .  D
C3316      H3324   1.085       .  S
C3317      H3325   1.087       .  S
C3317      C3318   1.350       .  D
C3318      H3326   1.086       .  S
C3327      C3335   1.487       .  S
C3327      C3328   1.402       .  A
C3327      C3332   1.409       .  A
C3328      C3329   1.400       .  A
C3328      H3337   1.083       .  S
C3329      C3330   1.408       .  A
C3329      H3338   1.083       .  S
C3330      C3333   1.487       .  S
C3330      C3331   1.402       .  A
C3331      C3332   1.401       .  A
C3331      H3339   1.083       .  S
C3332      H3340   1.083       .  S
C3333      H3341   1.086       .  S
C3333      C3334   1.344       .  D
C3334      H3342   1.087   1_565  S
C3335      H3343   1.087       .  S
C3335      C3336   1.345       .  D
C3336      H3344   1.087   1_565  S
C3345      C3353   1.487       .  S
C3345      C3346   1.405   1_545  A
C3345      C3350   1.405       .  A
C3346      C3347   1.398       .  A
C3346      H3355   1.084       .  S
C3347      C3348   1.407   1_565  A
C3347      H3356   1.080       .  S
C3348      C3351   1.491       .  S
C3348      C3349   1.406       .  A
C3349      C3350   1.399       .  A
C3349      H3357   1.083       .  S
C3350      H3358   1.081       .  S
C3351      H3359   1.087       .  S
C3351      C3352   1.350   1_545  D
C3352      H3360   1.083       .  S
C3353      H3361   1.087       .  S
C3353      C3354   1.350       .  D
C3354      H3362   1.084       .  S
C3363      C3371   1.487       .  S
C3363      C3364   1.406       .  A
C3363      C3368   1.406   1_565  A
C3364      C3365   1.403       .  A
C3364      H3373   1.083       .  S
C3365      C3366   1.406       .  A
C3365      H3374   1.082       .  S
C3366      C3369   1.482       .  S
C3366      C3367   1.402   1_565  A
C3367      C3368   1.392       .  A
C3367      H3375   1.084       .  S
C3368      H3376   1.082       .  S
C3369      H3377   1.087   1_565  S
C3369      C3370   1.347       .  D
C3370      H3378   1.085       .  S
C3371      H3379   1.087       .  S
C3371      C3372   1.346   1_565  D
C3372      H3380   1.085       .  S
C3381      C3389   1.483       .  S
C3381      C3382   1.401       .  A
C3381      C3386   1.408       .  A
C3382      C3383   1.399       .  A
C3382      H3391   1.083       .  S
C3383      C3384   1.408       .  A
C3383      H3392   1.083       .  S
C3384      C3387   1.483       .  S
C3384      C3385   1.401       .  A
C3385      C3386   1.399       .  A
C3385      H3393   1.083       .  S
C3386      H3394   1.083       .  S
C3387      H3395   1.087       .  S
C3387      C3388   1.342       .  D
C3388      H3396   1.087       .  S
C3389      H3397   1.087       .  S
C3389      C3390   1.343       .  D
C3390      H3398   1.087       .  S
C3399      C3407   1.490       .  S
C3399      C3400   1.406   1_565  A
C3399      C3404   1.407       .  A
C3400      C3401   1.403   1_455  A
C3400      H3409   1.083   1_455  S
C3401      C3402   1.406   1_645  A
C3401      H3410   1.082       .  S
C3402      C3405   1.488       .  S
C3402      C3403   1.404       .  A
C3403      C3404   1.400       .  A
C3403      H3411   1.083       .  S
C3404      H3412   1.082       .  S
C3405      H3413   1.087       .  S
C3405      C3406   1.348   1_465  D
C3406      H3414   1.086       .  S
C3407      H3415   1.087       .  S
C3407      C3408   1.349   1_565  D
C3408      H3416   1.085       .  S
C3417      C3425   1.492       .  S
C3417      C3418   1.405       .  A
C3417      C3422   1.408       .  A
C3418      C3419   1.401       .  A
C3418      H3427   1.083       .  S
C3419      C3420   1.408       .  A
C3419      H3428   1.082       .  S
C3420      C3423   1.491       .  S
C3420      C3421   1.404       .  A
C3421      C3422   1.401       .  A
C3421      H3429   1.083       .  S
C3422      H3430   1.082       .  S
C3423      H3431   1.087       .  S
C3423      C3424   1.348       .  D
C3424      H3432   1.085       .  S
C3425      H3433   1.087       .  S
C3425      C3426   1.348       .  D
C3426      H3434   1.085       .  S
C3435      C3443   1.488       .  S
C3435      C3436   1.401       .  A
C3435      C3440   1.409       .  A
C3436      C3437   1.399       .  A
C3436      H3445   1.083       .  S
C3437      C3438   1.410       .  A
C3437      H3446   1.082       .  S
C3438      C3441   1.487       .  S
C3438      C3439   1.401       .  A
C3439      C3440   1.398       .  A
C3439      H3447   1.083   1_455  S
C3440      H3448   1.082   1_455  S
C3441      H3449   1.087   1_455  S
C3441      C3442   1.343       .  D
C3442      H3450   1.086       .  S
C3443      H3451   1.087       .  S
C3443      C3444   1.343       .  D
C3444      H3452   1.086       .  S
C3453      C3461   1.476       .  S
C3453      C3454   1.402       .  A
C3453      C3458   1.405       .  A
C3454      C3455   1.394       .  A
C3454      H3463   1.084       .  S
C3455      C3456   1.405       .  A
C3455      H3464   1.082       .  S
C3456      C3459   1.480       .  S
C3456      C3457   1.404       .  A
C3457      C3458   1.398       .  A
C3457      H3465   1.083       .  S
C3458      H3466   1.082       .  S
C3459      H3467   1.087       .  S
C3459      C3460   1.345       .  D
C3460      H3468   1.085       .  S
C3461      H3469   1.088       .  S
C3461      C3462   1.345       .  D
C3462      H3470   1.085       .  S
C3471      C3479   1.480       .  S
C3471      C3472   1.403       .  A
C3471      C3476   1.406       .  A
C3472      C3473   1.397       .  A
C3472      H3481   1.083       .  S
C3473      C3474   1.405       .  A
C3473      H3482   1.082       .  S
C3474      C3477   1.481       .  S
C3474      C3475   1.404       .  A
C3475      C3476   1.398       .  A
C3475      H3483   1.084       .  S
C3476      H3484   1.082       .  S
C3477      H3485   1.087       .  S
C3477      C3478   1.346       .  D
C3478      H3486   1.086       .  S
C3479      H3487   1.087       .  S
C3479      C3480   1.346       .  D
C3480      H3488   1.086       .  S
C3489      C3497   1.492       .  S
C3489      C3490   1.404       .  A
C3489      C3494   1.408       .  A
C3490      C3491   1.401       .  A
C3490      H3499   1.083       .  S
C3491      C3492   1.409       .  A
C3491      H3500   1.080       .  S
C3492      C3495   1.491       .  S
C3492      C3493   1.404       .  A
C3493      C3494   1.398       .  A
C3493      H3501   1.083       .  S
C3494      H3502   1.081       .  S
C3495      H3503   1.087       .  S
C3495      C3496   1.348       .  D
C3496      H3504   1.084       .  S
C3497      H3505   1.087       .  S
C3497      C3498   1.348       .  D
C3498      H3506   1.084       .  S
C3507      C3515   1.482       .  S
C3507      C3508   1.402       .  A
C3507      C3512   1.407       .  A
C3508      C3509   1.393       .  A
C3508      H3517   1.084       .  S
C3509      C3510   1.406       .  A
C3509      H3518   1.081       .  S
C3510      C3513   1.485       .  S
C3510      C3511   1.405       .  A
C3511      C3512   1.400       .  A
C3511      H3519   1.083       .  S
C3512      H3520   1.081       .  S
C3513      H3521   1.087       .  S
C3513      C3514   1.346       .  D
C3514      H3522   1.085       .  S
C3515      H3523   1.087       .  S
C3515      C3516   1.346       .  D
C3516      H3524   1.085       .  S
C3525      C3533   1.488       .  S
C3525      C3526   1.404       .  A
C3525      C3530   1.407       .  A
C3526      C3527   1.399       .  A
C3526      H3535   1.084       .  S
C3527      C3528   1.409       .  A
C3527      H3536   1.080       .  S
C3528      C3531   1.490       .  S
C3528      C3529   1.405       .  A
C3529      C3530   1.397       .  A
C3529      H3537   1.083       .  S
C3530      H3538   1.080       .  S
C3531      H3539   1.087       .  S
C3531      C3532   1.348       .  D
C3532      H3540   1.083       .  S
C3533      H3541   1.087       .  S
C3533      C3534   1.349       .  D
C3534      H3542   1.084       .  S
C3543      C3551   1.484       .  S
C3543      C3544   1.401       .  A
C3543      C3548   1.408   1_455  A
C3544      C3545   1.399       .  A
C3544      H3553   1.083       .  S
C3545      C3546   1.408       .  A
C3545      H3554   1.082       .  S
C3546      C3549   1.484   1_455  S
C3546      C3547   1.401   1_455  A
C3547      C3548   1.398       .  A
C3547      H3555   1.083       .  S
C3548      H3556   1.083       .  S
C3549      H3557   1.087       .  S
C3549      C3550   1.344   1_655  D
C3550      H3558   1.086       .  S
C3551      H3559   1.087       .  S
C3551      C3552   1.343       .  D
C3552      H3560   1.087   1_455  S
C3561      C3569   1.489       .  S
C3561      C3562   1.404       .  A
C3561      C3566   1.408       .  A
C3562      C3563   1.398       .  A
C3562      H3571   1.083       .  S
C3563      C3564   1.405       .  A
C3563      H3572   1.083       .  S
C3564      C3567   1.487       .  S
C3564      C3565   1.405       .  A
C3565      C3566   1.403       .  A
C3565      H3573   1.083       .  S
C3566      H3574   1.082       .  S
C3567      H3575   1.087       .  S
C3567      C3568   1.347       .  D
C3568      H3576   1.086       .  S
C3569      H3577   1.087       .  S
C3569      C3570   1.348       .  D
C3570      H3578   1.085       .  S
C3579      C3587   1.488       .  S
C3579      C3580   1.403       .  A
C3579      C3584   1.406       .  A
C3580      C3581   1.403       .  A
C3580      H3589   1.083       .  S
C3581      C3582   1.411       .  A
C3581      H3590   1.081       .  S
C3582      C3585   1.492       .  S
C3582      C3583   1.404       .  A
C3583      C3584   1.397       .  A
C3583      H3591   1.083       .  S
C3584      H3592   1.083       .  S
C3585      H3593   1.087       .  S
C3585      C3586   1.349       .  D
C3586      H3594   1.084       .  S
C3587      H3595   1.087       .  S
C3587      C3588   1.343       .  D
C3588      H3596   1.087       .  S
C3597      C3605   1.487       .  S
C3597      C3598   1.404       .  A
C3597      C3602   1.407       .  A
C3598      C3599   1.400       .  A
C3598      H3607   1.083       .  S
C3599      C3600   1.407       .  A
C3599      H3608   1.082       .  S
C3600      C3603   1.488       .  S
C3600      C3601   1.405       .  A
C3601      C3602   1.399       .  A
C3601      H3609   1.083       .  S
C3602      H3610   1.082       .  S
C3603      H3611   1.087       .  S
C3603      C3604   1.348       .  D
C3604      H3612   1.085       .  S
C3605      H3613   1.087       .  S
C3605      C3606   1.347       .  D
C3606      H3614   1.086       .  S
C3615      C3623   1.493       .  S
C3615      C3616   1.402       .  A
C3615      C3620   1.413       .  A
C3616      C3617   1.396       .  A
C3616      H3625   1.083       .  S
C3617      C3618   1.408       .  A
C3617      H3626   1.082       .  S
C3618      C3621   1.489       .  S
C3618      C3619   1.402       .  A
C3619      C3620   1.402       .  A
C3619      H3627   1.083       .  S
C3620      H3628   1.080       .  S
C3621      H3629   1.086       .  S
C3621      C3622   1.343       .  D
C3622      H3630   1.086       .  S
C3623      H3631   1.087       .  S
C3623      C3624   1.345       .  D
C3624      H3632   1.083       .  S
C3633      C3641   1.484       .  S
C3633      C3634   1.401       .  A
C3633      C3638   1.410       .  A
C3634      C3635   1.396       .  A
C3634      H3643   1.083       .  S
C3635      C3636   1.408       .  A
C3635      H3644   1.082       .  S
C3636      C3639   1.483       .  S
C3636      C3637   1.401       .  A
C3637      C3638   1.398       .  A
C3637      H3645   1.083       .  S
C3638      H3646   1.081       .  S
C3639      H3647   1.087       .  S
C3639      C3640   1.342       .  D
C3640      H3648   1.086       .  S
C3641      H3649   1.087       .  S
C3641      C3642   1.342       .  D
C3642      H3650   1.085       .  S
C3651      C3659   1.483       .  S
C3651      C3652   1.402       .  A
C3651      C3656   1.408       .  A
C3652      C3653   1.395       .  A
C3652      H3661   1.083       .  S
C3653      C3654   1.406       .  A
C3653      H3662   1.082       .  S
C3654      C3657   1.482       .  S
C3654      C3655   1.402       .  A
C3655      C3656   1.399       .  A
C3655      H3663   1.083       .  S
C3656      H3664   1.081       .  S
C3657      H3665   1.087       .  S
C3657      C3658   1.344       .  D
C3658      H3666   1.086       .  S
C3659      H3667   1.087       .  S
C3659      C3660   1.345       .  D
C3660      H3668   1.085       .  S
C3669      C3677   1.494       .  S
C3669      C3670   1.409       .  A
C3669      C3674   1.405       .  A
C3670      C3671   1.403       .  A
C3670      H3679   1.080       .  S
C3671      C3672   1.410       .  A
C3671      H3680   1.081       .  S
C3672      C3675   1.494       .  S
C3672      C3673   1.403       .  A
C3673      C3674   1.399       .  A
C3673      H3681   1.083       .  S
C3674      H3682   1.083       .  S
C3675      H3683   1.087   1_655  S
C3675      C3676   1.347       .  D
C3676      H3684   1.084       .  S
C3677      H3685   1.087       .  S
C3677      C3678   1.351       .  D
C3678      H3686   1.083       .  S
C3687      C3695   1.495       .  S
C3687      C3688   1.404       .  A
C3687      C3692   1.410       .  A
C3688      C3689   1.401       .  A
C3688      H3697   1.083       .  S
C3689      C3690   1.410       .  A
C3689      H3698   1.081       .  S
C3690      C3693   1.493       .  S
C3690      C3691   1.403       .  A
C3691      C3692   1.400       .  A
C3691      H3699   1.083       .  S
C3692      H3700   1.080       .  S
C3693      H3701   1.087       .  S
C3693      C3694   1.346       .  D
C3694      H3702   1.084       .  S
C3695      H3703   1.087       .  S
C3695      C3696   1.347       .  D
C3696      H3704   1.084       .  S
C3705      C3713   1.497       .  S
C3705      C3706   1.406       .  A
C3705      C3710   1.410       .  A
C3706      C3707   1.401       .  A
C3706      H3715   1.083       .  S
C3707      C3708   1.408       .  A
C3707      H3716   1.081       .  S
C3708      C3711   1.496       .  S
C3708      C3709   1.405       .  A
C3709      C3710   1.402       .  A
C3709      H3717   1.083       .  S
C3710      H3718   1.080       .  S
C3711      H3719   1.087       .  S
C3711      C3712   1.350       .  D
C3712      H3720   1.084       .  S
C3713      H3721   1.087       .  S
C3713      C3714   1.350       .  D
C3714      H3722   1.083       .  S
C3723      C3731   1.488       .  S
C3723      C3724   1.406       .  A
C3723      C3728   1.406       .  A
C3724      C3725   1.399       .  A
C3724      H3733   1.083       .  S
C3725      C3726   1.406       .  A
C3725      H3734   1.080       .  S
C3726      C3729   1.486       .  S
C3726      C3727   1.405       .  A
C3727      C3728   1.395       .  A
C3727      H3735   1.084       .  S
C3728      H3736   1.079       .  S
C3729      H3737   1.087       .  S
C3729      C3730   1.350       .  D
C3730      H3738   1.083       .  S
C3731      H3739   1.087       .  S
C3731      C3732   1.350       .  D
C3732      H3740   1.083       .  S
C3741      C3749   1.480       .  S
C3741      C3742   1.402       .  A
C3741      C3746   1.407       .  A
C3742      C3743   1.395       .  A
C3742      H3751   1.083       .  S
C3743      C3744   1.405       .  A
C3743      H3752   1.082       .  S
C3744      C3747   1.476       .  S
C3744      C3745   1.401       .  A
C3745      C3746   1.395       .  A
C3745      H3753   1.084       .  S
C3746      H3754   1.081       .  S
C3747      H3755   1.087       .  S
C3747      C3748   1.342       .  D
C3748      H3756   1.086       .  S
C3749      H3757   1.087       .  S
C3749      C3750   1.342       .  D
C3750      H3758   1.085       .  S
C3759      C3767   1.483       .  S
C3759      C3760   1.404       .  A
C3759      C3764   1.405       .  A
C3760      C3761   1.400       .  A
C3760      H3769   1.083       .  S
C3761      C3762   1.407       .  A
C3761      H3770   1.082       .  S
C3762      C3765   1.483       .  S
C3762      C3763   1.403       .  A
C3763      C3764   1.396       .  A
C3763      H3771   1.084       .  S
C3764      H3772   1.082       .  S
C3765      H3773   1.087       .  S
C3765      C3766   1.347       .  D
C3766      H3774   1.085       .  S
C3767      H3775   1.087       .  S
C3767      C3768   1.346       .  D
C3768      H3776   1.085       .  S
C3777      C3785   1.496       .  S
C3777      C3778   1.405       .  A
C3777      C3782   1.410       .  A
C3778      C3779   1.403       .  A
C3778      H3787   1.083       .  S
C3779      C3780   1.410       .  A
C3779      H3788   1.081       .  S
C3780      C3783   1.495       .  S
C3780      C3781   1.403       .  A
C3781      C3782   1.400       .  A
C3781      H3789   1.083       .  S
C3782      H3790   1.081       .  S
C3783      H3791   1.087       .  S
C3783      C3784   1.347       .  D
C3784      H3792   1.084       .  S
C3785      H3793   1.087       .  S
C3785      C3786   1.348       .  D
C3786      H3794   1.084       .  S
C3795      C3803   1.488       .  S
C3795      C3796   1.406       .  A
C3795      C3800   1.406       .  A
C3796      C3797   1.401       .  A
C3796      H3805   1.083       .  S
C3797      C3798   1.406       .  A
C3797      H3806   1.082       .  S
C3798      C3801   1.489       .  S
C3798      C3799   1.406       .  A
C3799      C3800   1.401       .  A
C3799      H3807   1.083       .  S
C3800      H3808   1.082       .  S
C3801      H3809   1.087       .  S
C3801      C3802   1.350       .  D
C3802      H3810   1.085       .  S
C3803      H3811   1.087       .  S
C3803      C3804   1.350       .  D
C3804      H3812   1.085       .  S
C3813      C3821   1.480       .  S
C3813      C3814   1.402       .  A
C3813      C3818   1.406       .  A
C3814      C3815   1.395       .  A
C3814      H3823   1.084       .  S
C3815      C3816   1.406       .  A
C3815      H3824   1.082       .  S
C3816      C3819   1.481       .  S
C3816      C3817   1.403       .  A
C3817      C3818   1.398       .  A
C3817      H3825   1.083       .  S
C3818      H3826   1.082       .  S
C3819      H3827   1.087       .  S
C3819      C3820   1.345       .  D
C3820      H3828   1.085       .  S
C3821      H3829   1.087       .  S
C3821      C3822   1.345       .  D
C3822      H3830   1.085       .  S
C3831      C3839   1.482       .  S
C3831      C3832   1.401       .  A
C3831      C3836   1.408       .  A
C3832      C3833   1.396       .  A
C3832      H3841   1.083       .  S
C3833      C3834   1.408       .  A
C3833      H3842   1.083       .  S
C3834      C3837   1.482       .  S
C3834      C3835   1.400       .  A
C3835      C3836   1.398       .  A
C3835      H3843   1.083       .  S
C3836      H3844   1.082       .  S
C3837      H3845   1.087       .  S
C3837      C3838   1.341       .  D
C3838      H3846   1.087       .  S
C3839      H3847   1.087       .  S
C3839      C3840   1.344       .  D
C3840      H3848   1.086       .  S
C3849      C3857   1.480       .  S
C3849      C3850   1.404       .  A
C3849      C3854   1.404       .  A
C3850      C3851   1.398       .  A
C3850      H3859   1.082       .  S
C3851      C3852   1.409       .  A
C3851      H3860   1.082       .  S
C3852      C3855   1.482       .  S
C3852      C3853   1.400       .  A
C3853      C3854   1.397       .  A
C3853      H3861   1.083       .  S
C3854      H3862   1.083       .  S
C3855      H3863   1.087       .  S
C3855      C3856   1.342       .  D
C3856      H3864   1.087       .  S
C3857      H3865   1.088       .  S
C3857      C3858   1.348       .  D
C3858      H3866   1.086       .  S
C3867      C3875   1.486       .  S
C3867      C3868   1.405       .  A
C3867      C3872   1.406       .  A
C3868      C3869   1.402       .  A
C3868      H3877   1.083       .  S
C3869      C3870   1.407   1_455  A
C3869      H3878   1.082   1_455  S
C3870      C3873   1.483       .  S
C3870      C3871   1.403   1_655  A
C3871      C3872   1.396       .  A
C3871      H3879   1.084   1_455  S
C3872      H3880   1.082       .  S
C3873      H3881   1.087       .  S
C3873      C3874   1.348       .  D
C3874      H3882   1.085       .  S
C3875      H3883   1.087       .  S
C3875      C3876   1.346       .  D
C3876      H3884   1.086       .  S
C3885      C3893   1.487       .  S
C3885      C3886   1.405       .  A
C3885      C3890   1.405       .  A
C3886      C3887   1.402       .  A
C3886      H3895   1.083       .  S
C3887      C3888   1.407       .  A
C3887      H3896   1.082       .  S
C3888      C3891   1.487       .  S
C3888      C3889   1.404       .  A
C3889      C3890   1.397       .  A
C3889      H3897   1.083       .  S
C3890      H3898   1.082       .  S
C3891      H3899   1.087       .  S
C3891      C3892   1.349       .  D
C3892      H3900   1.085       .  S
C3893      H3901   1.087       .  S
C3893      C3894   1.347       .  D
C3894      H3902   1.086       .  S
C3903      C3911   1.490       .  S
C3903      C3904   1.403       .  A
C3903      C3908   1.411       .  A
C3904      C3905   1.397       .  A
C3904      H3913   1.083       .  S
C3905      C3906   1.407       .  A
C3905      H3914   1.082       .  S
C3906      C3909   1.485       .  S
C3906      C3907   1.401       .  A
C3907      C3908   1.400       .  A
C3907      H3915   1.083       .  S
C3908      H3916   1.081       .  S
C3909      H3917   1.087       .  S
C3909      C3910   1.343       .  D
C3910      H3918   1.086       .  S
C3911      H3919   1.087       .  S
C3911      C3912   1.344       .  D
C3912      H3920   1.084       .  S
C3921      C3929   1.491       .  S
C3921      C3922   1.404   1_655  A
C3921      C3926   1.408       .  A
C3922      C3923   1.400       .  A
C3922      H3931   1.083       .  S
C3923      C3924   1.410   1_455  A
C3923      H3932   1.080       .  S
C3924      C3927   1.493       .  S
C3924      C3925   1.404       .  A
C3925      C3926   1.399       .  A
C3925      H3933   1.083       .  S
C3926      H3934   1.081       .  S
C3927      H3935   1.087   1_545  S
C3927      C3928   1.347   1_655  D
C3928      H3936   1.083       .  S
C3929      H3937   1.087   1_655  S
C3929      C3930   1.348   1_545  D
C3930      H3938   1.084       .  S
C3939      C3947   1.493       .  S
C3939      C3940   1.405       .  A
C3939      C3944   1.410   1_565  A
C3940      C3941   1.401       .  A
C3940      H3949   1.083       .  S
C3941      C3942   1.409   1_565  A
C3941      H3950   1.082       .  S
C3942      C3945   1.489       .  S
C3942      C3943   1.401       .  A
C3943      C3944   1.398       .  A
C3943      H3951   1.083       .  S
C3944      H3952   1.080       .  S
C3945      H3953   1.087       .  S
C3945      C3946   1.345   1_545  D
C3946      H3954   1.085       .  S
C3947      H3955   1.087       .  S
C3947      C3948   1.347   1_565  D
C3948      H3956   1.083       .  S
C3957      C3965   1.483       .  S
C3957      C3958   1.402   1_565  A
C3957      C3962   1.406       .  A
C3958      C3959   1.396       .  A
C3958      H3967   1.084       .  S
C3959      C3960   1.407   1_545  A
C3959      H3968   1.080       .  S
C3960      C3963   1.487       .  S
C3960      C3961   1.405       .  A
C3961      C3962   1.398       .  A
C3961      H3969   1.083       .  S
C3962      H3970   1.082       .  S
C3963      H3971   1.087       .  S
C3963      C3964   1.347   1_565  D
C3964      H3972   1.084       .  S
C3965      H3973   1.087   1_565  S
C3965      C3966   1.345       .  D
C3966      H3974   1.085       .  S
C3975      C3983   1.487       .  S
C3975      C3976   1.407   1_565  A
C3975      C3980   1.404       .  A
C3976      C3977   1.401       .  A
C3976      H3985   1.083       .  S
C3977      C3978   1.405       .  A
C3977      H3986   1.081       .  S
C3978      C3981   1.486       .  S
C3978      C3979   1.406   1_545  A
C3979      C3980   1.396       .  A
C3979      H3987   1.084       .  S
C3980      H3988   1.081       .  S
C3981      H3989   1.087   1_545  S
C3981      C3982   1.353       .  D
C3982      H3990   1.084       .  S
C3983      H3991   1.087   1_565  S
C3983      C3984   1.351       .  D
C3984      H3992   1.084       .  S
C3993      C4001   1.487       .  S
C3993      C3994   1.403       .  A
C3993      C3998   1.407   1_545  A
C3994      C3995   1.400       .  A
C3994      H4003   1.083       .  S
C3995      C3996   1.410       .  A
C3995      H4004   1.080       .  S
C3996      C3999   1.490       .  S
C3996      C3997   1.403   1_545  A
C3997      C3998   1.395       .  A
C3997      H4005   1.084       .  S
C3998      H4006   1.081       .  S
C3999      H4007   1.087   1_545  S
C3999      C4000   1.346       .  D
C4000      H4008   1.083       .  S
C4001      H4009   1.087       .  S
C4001      C4002   1.344   1_545  D
C4002      H4010   1.085       .  S
C4011      C4019   1.487       .  S
C4011      C4012   1.403       .  A
C4011      C4016   1.408       .  A
C4012      C4013   1.400       .  A
C4012      H4021   1.083       .  S
C4013      C4014   1.407       .  A
C4013      H4022   1.083       .  S
C4014      C4017   1.486       .  S
C4014      C4015   1.402       .  A
C4015      C4016   1.402       .  A
C4015      H4023   1.083   1_655  S
C4016      H4024   1.083   1_655  S
C4017      H4025   1.086       .  S
C4017      C4018   1.344       .  D
C4018      H4026   1.087   1_565  S
C4019      H4027   1.087       .  S
C4019      C4020   1.346       .  D
C4020      H4028   1.086   1_565  S
C4029      C4037   1.493       .  S
C4029      C4030   1.405       .  A
C4029      C4034   1.409       .  A
C4030      C4031   1.402       .  A
C4030      H4039   1.083       .  S
C4031      C4032   1.409       .  A
C4031      H4040   1.081       .  S
C4032      C4035   1.490       .  S
C4032      C4033   1.402   1_565  A
C4033      C4034   1.397   1_545  A
C4033      H4041   1.084       .  S
C4034      H4042   1.081   1_565  S
C4035      H4043   1.087   1_565  S
C4035      C4036   1.346       .  D
C4036      H4044   1.085       .  S
C4037      H4045   1.087       .  S
C4037      C4038   1.347   1_565  D
C4038      H4046   1.084       .  S
C4047      C4055   1.485       .  S
C4047      C4048   1.405       .  A
C4047      C4052   1.406   1_545  A
C4048      C4049   1.395       .  A
C4048      H4057   1.084       .  S
C4049      C4050   1.405       .  A
C4049      H4058   1.080       .  S
C4050      C4053   1.484   1_545  S
C4050      C4051   1.405   1_545  A
C4051      C4052   1.398       .  A
C4051      H4059   1.083       .  S
C4052      H4060   1.080       .  S
C4053      H4061   1.087       .  S
C4053      C4054   1.349   1_565  D
C4054      H4062   1.084       .  S
C4055      H4063   1.087       .  S
C4055      C4056   1.350   1_545  D
C4056      H4064   1.083       .  S
C4065      C4073   1.489   1_545  S
C4065      C4066   1.403   1_545  A
C4065      C4070   1.409       .  A
C4066      C4067   1.400       .  A
C4066      H4075   1.083       .  S
C4067      C4068   1.410   1_565  A
C4067      H4076   1.080       .  S
C4068      C4071   1.488       .  S
C4068      C4069   1.402       .  A
C4069      C4070   1.396       .  A
C4069      H4077   1.084       .  S
C4070      H4078   1.080       .  S
C4071      H4079   1.087       .  S
C4071      C4072   1.345       .  D
C4072      H4080   1.083       .  S
C4073      H4081   1.087       .  S
C4073      C4074   1.345       .  D
C4074      H4082   1.084   1_565  S
C4083      C4091   1.485       .  S
C4083      C4084   1.401       .  A
C4083      C4088   1.409       .  A
C4084      C4085   1.398       .  A
C4084      H4093   1.083       .  S
C4085      C4086   1.408       .  A
C4085      H4094   1.082       .  S
C4086      C4089   1.484       .  S
C4086      C4087   1.401       .  A
C4087      C4088   1.398       .  A
C4087      H4095   1.083       .  S
C4088      H4096   1.082       .  S
C4089      H4097   1.087       .  S
C4089      C4090   1.344       .  D
C4090      H4098   1.086       .  S
C4091      H4099   1.087       .  S
C4091      C4092   1.344       .  D
C4092      H4100   1.086       .  S
C4101      C4109   1.484       .  S
C4101      C4102   1.403       .  A
C4101      C4106   1.407       .  A
C4102      C4103   1.396       .  A
C4102      H4111   1.084       .  S
C4103      C4104   1.407       .  A
C4103      H4112   1.081       .  S
C4104      C4107   1.484       .  S
C4104      C4105   1.403       .  A
C4105      C4106   1.398       .  A
C4105      H4113   1.083       .  S
C4106      H4114   1.081       .  S
C4107      H4115   1.087       .  S
C4107      C4108   1.345       .  D
C4108      H4116   1.085       .  S
C4109      H4117   1.087       .  S
C4109      C4110   1.346       .  D
C4110      H4118   1.084       .  S
C4119      C4127   1.487       .  S
C4119      C4120   1.401       .  A
C4119      C4124   1.409       .  A
C4120      C4121   1.401       .  A
C4120      H4129   1.083       .  S
C4121      C4122   1.409       .  A
C4121      H4130   1.083       .  S
C4122      C4125   1.488       .  S
C4122      C4123   1.401       .  A
C4123      C4124   1.401       .  A
C4123      H4131   1.083       .  S
C4124      H4132   1.083       .  S
C4125      H4133   1.086       .  S
C4125      C4126   1.342       .  D
C4126      H4134   1.088       .  S
C4127      H4135   1.086       .  S
C4127      C4128   1.344       .  D
C4128      H4136   1.087       .  S
C4137      C4145   1.485       .  S
C4137      C4138   1.401       .  A
C4137      C4142   1.408       .  A
C4138      C4139   1.397       .  A
C4138      H4147   1.084       .  S
C4139      C4140   1.409       .  A
C4139      H4148   1.080       .  S
C4140      C4143   1.490       .  S
C4140      C4141   1.404       .  A
C4141      C4142   1.399       .  A
C4141      H4149   1.083       .  S
C4142      H4150   1.082       .  S
C4143      H4151   1.087       .  S
C4143      C4144   1.346       .  D
C4144      H4152   1.084       .  S
C4145      H4153   1.087       .  S
C4145      C4146   1.344       .  D
C4146      H4154   1.085       .  S
C4155      C4163   1.485       .  S
C4155      C4156   1.406       .  A
C4155      C4160   1.405       .  A
C4156      C4157   1.400       .  A
C4156      H4165   1.082       .  S
C4157      C4158   1.408       .  A
C4157      H4166   1.082       .  S
C4158      C4161   1.485       .  S
C4158      C4159   1.401       .  A
C4159      C4160   1.398       .  A
C4159      H4167   1.083       .  S
C4160      H4168   1.083       .  S
C4161      H4169   1.087       .  S
C4161      C4162   1.344       .  D
C4162      H4170   1.086       .  S
C4163      H4171   1.087       .  S
C4163      C4164   1.349       .  D
C4164      H4172   1.085       .  S
C4173      C4181   1.481       .  S
C4173      C4174   1.402       .  A
C4173      C4178   1.407       .  A
C4174      C4175   1.394       .  A
C4174      H4183   1.084       .  S
C4175      C4176   1.405       .  A
C4175      H4184   1.082       .  S
C4176      C4179   1.480       .  S
C4176      C4177   1.403       .  A
C4177      C4178   1.399       .  A
C4177      H4185   1.083       .  S
C4178      H4186   1.082       .  S
C4179      H4187   1.087       .  S
C4179      C4180   1.345       .  D
C4180      H4188   1.086       .  S
C4181      H4189   1.087       .  S
C4181      C4182   1.347       .  D
C4182      H4190   1.085       .  S
C4191      C4199   1.495       .  S
C4191      C4192   1.407       .  A
C4191      C4196   1.408       .  A
C4192      C4193   1.402       .  A
C4192      H4201   1.083       .  S
C4193      C4194   1.408       .  A
C4193      H4202   1.080       .  S
C4194      C4197   1.492       .  S
C4194      C4195   1.405       .  A
C4195      C4196   1.397       .  A
C4195      H4203   1.084       .  S
C4196      H4204   1.079       .  S
C4197      H4205   1.087       .  S
C4197      C4198   1.350       .  D
C4198      H4206   1.083       .  S
C4199      H4207   1.087       .  S
C4199      C4200   1.351       .  D
C4200      H4208   1.082   1_455  S
C4209      C4217   1.485       .  S
C4209      C4210   1.401       .  A
C4209      C4214   1.408       .  A
C4210      C4211   1.397       .  A
C4210      H4219   1.083       .  S
C4211      C4212   1.408       .  A
C4211      H4220   1.081       .  S
C4212      C4215   1.485       .  S
C4212      C4213   1.402       .  A
C4213      C4214   1.398       .  A
C4213      H4221   1.083       .  S
C4214      H4222   1.082       .  S
C4215      H4223   1.087       .  S
C4215      C4216   1.344       .  D
C4216      H4224   1.085       .  S
C4217      H4225   1.087       .  S
C4217      C4218   1.343       .  D
C4218      H4226   1.085       .  S
C4227      C4235   1.491       .  S
C4227      C4228   1.405       .  A
C4227      C4232   1.406       .  A
C4228      C4229   1.401       .  A
C4228      H4237   1.083       .  S
C4229      C4230   1.407       .  A
C4229      H4238   1.080       .  S
C4230      C4233   1.494       .  S
C4230      C4231   1.407       .  A
C4231      C4232   1.402       .  A
C4231      H4239   1.083       .  S
C4232      H4240   1.082       .  S
C4233      H4241   1.087       .  S
C4233      C4234   1.353       .  D
C4234      H4242   1.084       .  S
C4235      H4243   1.087       .  S
C4235      C4236   1.350       .  D
C4236      H4244   1.085       .  S
C4245      C4253   1.486       .  S
C4245      C4246   1.404       .  A
C4245      C4250   1.408       .  A
C4246      C4247   1.398       .  A
C4246      H4255   1.083       .  S
C4247      C4248   1.406       .  A
C4247      H4256   1.082       .  S
C4248      C4251   1.480       .  S
C4248      C4249   1.401       .  A
C4249      C4250   1.394       .  A
C4249      H4257   1.084       .  S
C4250      H4258   1.080       .  S
C4251      H4259   1.087       .  S
C4251      C4252   1.344       .  D
C4252      H4260   1.085       .  S
C4253      H4261   1.087       .  S
C4253      C4254   1.346       .  D
C4254      H4262   1.083       .  S
C4263      C4271   1.498       .  S
C4263      C4264   1.404       .  A
C4263      C4268   1.410       .  A
C4264      C4265   1.401       .  A
C4264      H4273   1.083       .  S
C4265      C4266   1.411       .  A
C4265      H4274   1.079       .  S
C4266      C4269   1.500       .  S
C4266      C4267   1.406       .  A
C4267      C4268   1.403       .  A
C4267      H4275   1.083       .  S
C4268      H4276   1.081       .  S
C4269      H4277   1.087       .  S
C4269      C4270   1.349       .  D
C4270      H4278   1.083       .  S
C4271      H4279   1.087       .  S
C4271      C4272   1.349       .  D
C4272      H4280   1.084       .  S
C4281      C4289   1.475       .  S
C4281      C4282   1.402   1_655  A
C4281      C4286   1.406   1_655  A
C4282      C4283   1.394       .  A
C4282      H4291   1.084   1_455  S
C4283      C4284   1.405       .  A
C4283      H4292   1.082       .  S
C4284      C4287   1.476       .  S
C4284      C4285   1.402       .  A
C4285      C4286   1.395       .  A
C4285      H4293   1.084       .  S
C4286      H4294   1.082   1_455  S
C4287      H4295   1.087       .  S
C4287      C4288   1.343       .  D
C4288      H4296   1.086       .  S
C4289      H4297   1.087       .  S
C4289      C4290   1.344       .  D
C4290      H4298   1.085       .  S
C4299      C4307   1.482       .  S
C4299      C4300   1.402       .  A
C4299      C4304   1.408       .  A
C4300      C4301   1.398       .  A
C4300      H4309   1.083       .  S
C4301      C4302   1.403       .  A
C4301      H4310   1.083       .  S
C4302      C4305   1.479       .  S
C4302      C4303   1.404       .  A
C4303      C4304   1.398       .  A
C4303      H4311   1.083       .  S
C4304      H4312   1.082       .  S
C4305      H4313   1.087       .  S
C4305      C4306   1.346       .  D
C4306      H4314   1.086       .  S
C4307      H4315   1.087       .  S
C4307      C4308   1.344       .  D
C4308      H4316   1.086       .  S
C4317      C4325   1.492       .  S
C4317      C4318   1.404       .  A
C4317      C4322   1.408       .  A
C4318      C4319   1.399       .  A
C4318      H4327   1.083       .  S
C4319      C4320   1.408       .  A
C4319      H4328   1.081       .  S
C4320      C4323   1.493       .  S
C4320      C4321   1.405       .  A
C4321      C4322   1.401       .  A
C4321      H4329   1.083       .  S
C4322      H4330   1.081       .  S
C4323      H4331   1.087       .  S
C4323      C4324   1.349       .  D
C4324      H4332   1.084       .  S
C4325      H4333   1.087       .  S
C4325      C4326   1.349       .  D
C4326      H4334   1.084       .  S
C4335      C4343   1.492       .  S
C4335      C4336   1.405       .  A
C4335      C4340   1.408       .  A
C4336      C4337   1.400       .  A
C4336      H4345   1.083       .  S
C4337      C4338   1.409       .  A
C4337      H4346   1.079       .  S
C4338      C4341   1.495       .  S
C4338      C4339   1.405       .  A
C4339      C4340   1.399       .  A
C4339      H4347   1.083       .  S
C4340      H4348   1.080       .  S
C4341      H4349   1.087       .  S
C4341      C4342   1.350       .  D
C4342      H4350   1.082       .  S
C4343      H4351   1.087       .  S
C4343      C4344   1.350       .  D
C4344      H4352   1.083       .  S
C4353      C4361   1.483       .  S
C4353      C4354   1.404       .  A
C4353      C4358   1.405       .  A
C4354      C4355   1.397       .  A
C4354      H4363   1.084       .  S
C4355      C4356   1.407       .  A
C4355      H4364   1.080       .  S
C4356      C4359   1.485       .  S
C4356      C4357   1.404       .  A
C4357      C4358   1.396       .  A
C4357      H4365   1.084       .  S
C4358      H4366   1.081       .  S
C4359      H4367   1.087       .  S
C4359      C4360   1.348       .  D
C4360      H4368   1.083       .  S
C4361      H4369   1.087       .  S
C4361      C4362   1.348       .  D
C4362      H4370   1.084       .  S
C4371      C4379   1.486       .  S
C4371      C4372   1.402       .  A
C4371      C4376   1.409       .  A
C4372      C4373   1.399       .  A
C4372      H4381   1.083   1_655  S
C4373      C4374   1.407       .  A
C4373      H4382   1.083       .  S
C4374      C4377   1.485       .  S
C4374      C4375   1.402       .  A
C4375      C4376   1.400       .  A
C4375      H4383   1.083       .  S
C4376      H4384   1.082       .  S
C4377      H4385   1.087       .  S
C4377      C4378   1.344       .  D
C4378      H4386   1.087       .  S
C4379      H4387   1.087       .  S
C4379      C4380   1.344       .  D
C4380      H4388   1.086       .  S
C4389      C4397   1.486       .  S
C4389      C4390   1.401       .  A
C4389      C4394   1.408       .  A
C4390      C4391   1.399       .  A
C4390      H4399   1.083       .  S
C4391      C4392   1.409       .  A
C4391      H4400   1.082       .  S
C4392      C4395   1.488       .  S
C4392      C4393   1.403       .  A
C4393      C4394   1.401       .  A
C4393      H4401   1.083       .  S
C4394      H4402   1.083       .  S
C4395      H4403   1.087       .  S
C4395      C4396   1.346       .  D
C4396      H4404   1.086       .  S
C4397      H4405   1.087       .  S
C4397      C4398   1.343       .  D
C4398      H4406   1.087       .  S
C4407      C4415   1.485       .  S
C4407      C4408   1.402       .  A
C4407      C4412   1.407       .  A
C4408      C4409   1.401       .  A
C4408      H4417   1.083       .  S
C4409      C4410   1.409       .  A
C4409      H4418   1.082       .  S
C4410      C4413   1.485       .  S
C4410      C4411   1.401       .  A
C4411      C4412   1.396       .  A
C4411      H4419   1.083       .  S
C4412      H4420   1.082       .  S
C4413      H4421   1.087       .  S
C4413      C4414   1.344       .  D
C4414      H4422   1.085       .  S
C4415      H4423   1.087       .  S
C4415      C4416   1.343       .  D
C4416      H4424   1.086       .  S
C4425      C4433   1.478       .  S
C4425      C4426   1.403       .  A
C4425      C4430   1.405       .  A
C4426      C4427   1.395       .  A
C4426      H4435   1.084       .  S
C4427      C4428   1.404       .  A
C4427      H4436   1.083       .  S
C4428      C4431   1.479       .  S
C4428      C4429   1.404       .  A
C4429      C4430   1.399       .  A
C4429      H4437   1.083       .  S
C4430      H4438   1.082       .  S
C4431      H4439   1.087       .  S
C4431      C4432   1.345       .  D
C4432      H4440   1.086       .  S
C4433      H4441   1.087       .  S
C4433      C4434   1.348       .  D
C4434      H4442   1.086       .  S
C4443      C4451   1.482       .  S
C4443      C4444   1.404       .  A
C4443      C4448   1.405       .  A
C4444      C4445   1.397       .  A
C4444      H4453   1.083       .  S
C4445      C4446   1.405       .  A
C4445      H4454   1.081       .  S
C4446      C4449   1.482       .  S
C4446      C4447   1.404       .  A
C4447      C4448   1.397       .  A
C4447      H4455   1.084       .  S
C4448      H4456   1.082       .  S
C4449      H4457   1.087       .  S
C4449      C4450   1.348       .  D
C4450      H4458   1.085       .  S
C4451      H4459   1.087       .  S
C4451      C4452   1.347       .  D
C4452      H4460   1.085       .  S
C4461      C4469   1.486       .  S
C4461      C4462   1.404       .  A
C4461      C4466   1.407   1_455  A
C4462      C4463   1.400       .  A
C4462      H4471   1.083       .  S
C4463      C4464   1.407       .  A
C4463      H4472   1.082       .  S
C4464      C4467   1.484       .  S
C4464      C4465   1.402   1_455  A
C4465      C4466   1.398       .  A
C4465      H4473   1.083       .  S
C4466      H4474   1.082       .  S
C4467      H4475   1.087   1_455  S
C4467      C4468   1.346       .  D
C4468      H4476   1.086       .  S
C4469      H4477   1.087       .  S
C4469      C4470   1.346   1_455  D
C4470      H4478   1.086       .  S
C4479      C4487   1.492   1_655  S
C4479      C4480   1.403       .  A
C4479      C4484   1.408       .  A
C4480      C4481   1.402       .  A
C4480      H4489   1.083       .  S
C4481      C4482   1.410       .  A
C4481      H4490   1.081       .  S
C4482      C4485   1.493       .  S
C4482      C4483   1.404       .  A
C4483      C4484   1.400       .  A
C4483      H4491   1.083       .  S
C4484      H4492   1.082       .  S
C4485      H4493   1.087       .  S
C4485      C4486   1.346       .  D
C4486      H4494   1.085       .  S
C4487      H4495   1.087       .  S
C4487      C4488   1.344   1_455  D
C4488      H4496   1.086       .  S
C4497      C4505   1.489       .  S
C4497      C4498   1.402       .  A
C4497      C4502   1.410       .  A
C4498      C4499   1.396       .  A
C4498      H4507   1.083       .  S
C4499      C4500   1.408       .  A
C4499      H4508   1.082       .  S
C4500      C4503   1.487       .  S
C4500      C4501   1.402       .  A
C4501      C4502   1.401       .  A
C4501      H4509   1.083       .  S
C4502      H4510   1.081       .  S
C4503      H4511   1.087       .  S
C4503      C4504   1.342       .  D
C4504      H4512   1.086       .  S
C4505      H4513   1.087       .  S
C4505      C4506   1.344       .  D
C4506      H4514   1.085       .  S
C4515      C4523   1.489       .  S
C4515      C4516   1.403       .  A
C4515      C4520   1.408       .  A
C4516      C4517   1.400       .  A
C4516      H4525   1.083       .  S
C4517      C4518   1.410       .  A
C4517      H4526   1.080       .  S
C4518      C4521   1.491       .  S
C4518      C4519   1.403       .  A
C4519      C4520   1.398       .  A
C4519      H4527   1.083       .  S
C4520      H4528   1.081       .  S
C4521      H4529   1.087       .  S
C4521      C4522   1.347       .  D
C4522      H4530   1.084       .  S
C4523      H4531   1.087       .  S
C4523      C4524   1.345       .  D
C4524      H4532   1.085       .  S
C4533      C4541   1.495       .  S
C4533      C4534   1.404       .  A
C4533      C4538   1.411       .  A
C4534      C4535   1.400       .  A
C4534      H4543   1.083       .  S
C4535      C4536   1.409       .  A
C4535      H4544   1.082       .  S
C4536      C4539   1.494       .  S
C4536      C4537   1.403       .  A
C4537      C4538   1.402       .  A
C4537      H4545   1.083       .  S
C4538      H4546   1.080       .  S
C4539      H4547   1.087       .  S
C4539      C4540   1.345       .  D
C4540      H4548   1.086       .  S
C4541      H4549   1.087       .  S
C4541      C4542   1.346       .  D
C4542      H4550   1.084       .  S
C4551      C4559   1.490       .  S
C4551      C4552   1.407       .  A
C4551      C4556   1.405       .  A
C4552      C4553   1.402       .  A
C4552      H4561   1.083       .  S
C4553      C4554   1.407       .  A
C4553      H4562   1.081       .  S
C4554      C4557   1.490       .  S
C4554      C4555   1.406       .  A
C4555      C4556   1.398       .  A
C4555      H4563   1.083       .  S
C4556      H4564   1.081       .  S
C4557      H4565   1.087       .  S
C4557      C4558   1.353       .  D
C4558      H4566   1.084       .  S
C4559      H4567   1.087       .  S
C4559      C4560   1.352       .  D
C4560      H4568   1.085       .  S
C4569      C4577   1.492       .  S
C4569      C4570   1.404       .  A
C4569      C4574   1.408       .  A
C4570      C4571   1.399       .  A
C4570      H4579   1.083       .  S
C4571      C4572   1.408       .  A
C4571      H4580   1.081       .  S
C4572      C4575   1.495       .  S
C4572      C4573   1.407       .  A
C4573      C4574   1.404       .  A
C4573      H4581   1.083       .  S
C4574      H4582   1.082       .  S
C4575      H4583   1.087       .  S
C4575      C4576   1.348       .  D
C4576      H4584   1.084       .  S
C4577      H4585   1.087       .  S
C4577      C4578   1.347       .  D
C4578      H4586   1.085       .  S
C4587      C4595   1.487       .  S
C4587      C4588   1.403       .  A
C4587      C4592   1.408       .  A
C4588      C4589   1.401       .  A
C4588      H4597   1.083       .  S
C4589      C4590   1.408       .  A
C4589      H4598   1.083       .  S
C4590      C4593   1.488       .  S
C4590      C4591   1.402       .  A
C4591      C4592   1.401       .  A
C4591      H4599   1.083       .  S
C4592      H4600   1.083       .  S
C4593      H4601   1.087       .  S
C4593      C4594   1.343       .  D
C4594      H4602   1.087       .  S
C4595      H4603   1.087       .  S
C4595      C4596   1.345       .  D
C4596      H4604   1.087       .  S
C4605      C4613   1.491       .  S
C4605      C4606   1.403       .  A
C4605      C4610   1.410       .  A
C4606      C4607   1.398       .  A
C4606      H4615   1.084       .  S
C4607      C4608   1.408       .  A
C4607      H4616   1.081       .  S
C4608      C4611   1.489       .  S
C4608      C4609   1.402       .  A
C4609      C4610   1.399       .  A
C4609      H4617   1.083       .  S
C4610      H4618   1.080       .  S
C4611      H4619   1.087       .  S
C4611      C4612   1.345       .  D
C4612      H4620   1.085       .  S
C4613      H4621   1.087       .  S
C4613      C4614   1.346       .  D
C4614      H4622   1.083       .  S
C4623      C4631   1.486       .  S
C4623      C4624   1.403       .  A
C4623      C4628   1.407       .  A
C4624      C4625   1.398       .  A
C4624      H4633   1.083       .  S
C4625      C4626   1.406       .  A
C4625      H4634   1.082       .  S
C4626      C4629   1.486       .  S
C4626      C4627   1.404       .  A
C4627      C4628   1.401       .  A
C4627      H4635   1.083       .  S
C4628      H4636   1.082       .  S
C4629      H4637   1.087       .  S
C4629      C4630   1.345       .  D
C4630      H4638   1.086       .  S
C4631      H4639   1.087       .  S
C4631      C4632   1.347       .  D
C4632      H4640   1.085       .  S
C4641      C4649   1.491       .  S
C4641      C4642   1.402       .  A
C4641      C4646   1.410       .  A
C4642      C4643   1.397       .  A
C4642      H4651   1.083       .  S
C4643      C4644   1.409       .  A
C4643      H4652   1.081       .  S
C4644      C4647   1.495       .  S
C4644      C4645   1.405       .  A
C4645      C4646   1.404       .  A
C4645      H4653   1.083       .  S
C4646      H4654   1.082       .  S
C4647      H4655   1.087       .  S
C4647      C4648   1.346       .  D
C4648      H4656   1.085       .  S
C4649      H4657   1.087       .  S
C4649      C4650   1.345       .  D
C4650      H4658   1.085       .  S
C4659      C4667   1.486       .  S
C4659      C4660   1.403       .  A
C4659      C4664   1.408       .  A
C4660      C4661   1.399       .  A
C4660      H4669   1.083       .  S
C4661      C4662   1.406       .  A
C4661      H4670   1.083       .  S
C4662      C4665   1.485       .  S
C4662      C4663   1.403       .  A
C4663      C4664   1.400       .  A
C4663      H4671   1.083       .  S
C4664      H4672   1.082       .  S
C4665      H4673   1.087       .  S
C4665      C4666   1.345       .  D
C4666      H4674   1.086       .  S
C4667      H4675   1.087       .  S
C4667      C4668   1.345       .  D
C4668      H4676   1.086       .  S
C4677      C4685   1.492       .  S
C4677      C4678   1.405       .  A
C4677      C4682   1.408       .  A
C4678      C4679   1.398       .  A
C4678      H4687   1.084       .  S
C4679      C4680   1.407       .  A
C4679      H4688   1.080       .  S
C4680      C4683   1.493       .  S
C4680      C4681   1.406       .  A
C4681      C4682   1.402       .  A
C4681      H4689   1.083       .  S
C4682      H4690   1.080       .  S
C4683      H4691   1.087       .  S
C4683      C4684   1.350       .  D
C4684      H4692   1.084       .  S
C4685      H4693   1.087       .  S
C4685      C4686   1.350       .  D
C4686      H4694   1.083       .  S
C4695      C4703   1.481       .  S
C4695      C4696   1.401       .  A
C4695      C4700   1.407       .  A
C4696      C4697   1.394   1_655  A
C4696      H4705   1.084       .  S
C4697      C4698   1.408       .  A
C4697      H4706   1.080       .  S
C4698      C4701   1.483       .  S
C4698      C4699   1.402       .  A
C4699      C4700   1.396   1_455  A
C4699      H4707   1.084       .  S
C4700      H4708   1.081       .  S
C4701      H4709   1.087       .  S
C4701      C4702   1.343       .  D
C4702      H4710   1.084       .  S
C4703      H4711   1.087       .  S
C4703      C4704   1.342       .  D
C4704      H4712   1.084       .  S
C4713      C4721   1.483       .  S
C4713      C4714   1.405       .  A
C4713      C4718   1.405       .  A
C4714      C4715   1.397       .  A
C4714      H4723   1.084       .  S
C4715      C4716   1.405       .  A
C4715      H4724   1.081       .  S
C4716      C4719   1.483       .  S
C4716      C4717   1.405       .  A
C4717      C4718   1.397       .  A
C4717      H4725   1.084       .  S
C4718      H4726   1.081       .  S
C4719      H4727   1.087       .  S
C4719      C4720   1.348       .  D
C4720      H4728   1.084       .  S
C4721      H4729   1.087       .  S
C4721      C4722   1.350       .  D
C4722      H4730   1.084       .  S
C4731      C4739   1.490       .  S
C4731      C4732   1.405       .  A
C4731      C4736   1.407       .  A
C4732      C4733   1.401       .  A
C4732      H4741   1.083       .  S
C4733      C4734   1.408       .  A
C4733      H4742   1.082       .  S
C4734      C4737   1.490       .  S
C4734      C4735   1.404       .  A
C4735      C4736   1.401       .  A
C4735      H4743   1.083       .  S
C4736      H4744   1.082       .  S
C4737      H4745   1.087       .  S
C4737      C4738   1.347       .  D
C4738      H4746   1.085       .  S
C4739      H4747   1.087       .  S
C4739      C4740   1.349       .  D
C4740      H4748   1.085       .  S
C4749      C4757   1.492       .  S
C4749      C4750   1.402       .  A
C4749      C4754   1.411       .  A
C4750      C4751   1.400       .  A
C4750      H4759   1.083       .  S
C4751      C4752   1.410       .  A
C4751      H4760   1.081       .  S
C4752      C4755   1.492       .  S
C4752      C4753   1.402       .  A
C4753      C4754   1.400       .  A
C4753      H4761   1.083       .  S
C4754      H4762   1.081       .  S
C4755      H4763   1.087       .  S
C4755      C4756   1.345       .  D
C4756      H4764   1.085       .  S
C4757      H4765   1.087       .  S
C4757      C4758   1.344       .  D
C4758      H4766   1.085       .  S
C4767      C4775   1.489       .  S
C4767      C4768   1.404       .  A
C4767      C4772   1.407       .  A
C4768      C4769   1.400       .  A
C4768      H4777   1.083       .  S
C4769      C4770   1.407       .  A
C4769      H4778   1.082       .  S
C4770      C4773   1.488       .  S
C4770      C4771   1.404       .  A
C4771      C4772   1.401       .  A
C4771      H4779   1.083       .  S
C4772      H4780   1.082       .  S
C4773      H4781   1.087       .  S
C4773      C4774   1.346       .  D
C4774      H4782   1.086       .  S
C4775      H4783   1.087       .  S
C4775      C4776   1.348       .  D
C4776      H4784   1.086       .  S
C4785      C4793   1.488       .  S
C4785      C4786   1.400       .  A
C4785      C4790   1.410       .  A
C4786      C4787   1.400       .  A
C4786      H4795   1.083       .  S
C4787      C4788   1.409       .  A
C4787      H4796   1.083       .  S
C4788      C4791   1.487       .  S
C4788      C4789   1.401       .  A
C4789      C4790   1.403       .  A
C4789      H4797   1.083       .  S
C4790      H4798   1.083       .  S
C4791      H4799   1.086       .  S
C4791      C4792   1.343       .  D
C4792      H4800   1.088       .  S
C4793      H4801   1.086       .  S
C4793      C4794   1.342       .  D
C4794      H4802   1.088       .  S
C4803      C4811   1.492       .  S
C4803      C4804   1.404       .  A
C4803      C4808   1.408       .  A
C4804      C4805   1.400       .  A
C4804      H4813   1.083       .  S
C4805      C4806   1.410       .  A
C4805      H4814   1.080       .  S
C4806      C4809   1.493       .  S
C4806      C4807   1.404       .  A
C4807      C4808   1.399       .  A
C4807      H4815   1.083       .  S
C4808      H4816   1.080       .  S
C4809      H4817   1.087       .  S
C4809      C4810   1.347       .  D
C4810      H4818   1.083       .  S
C4811      H4819   1.087       .  S
C4811      C4812   1.348       .  D
C4812      H4820   1.084       .  S
C4821      C4829   1.489       .  S
C4821      C4822   1.403       .  A
C4821      C4826   1.408       .  A
C4822      C4823   1.399       .  A
C4822      H4831   1.083       .  S
C4823      C4824   1.408       .  A
C4823      H4832   1.083       .  S
C4824      C4827   1.491       .  S
C4824      C4825   1.404       .  A
C4825      C4826   1.404       .  A
C4825      H4833   1.083       .  S
C4826      H4834   1.082       .  S
C4827      H4835   1.086       .  S
C4827      C4828   1.344       .  D
C4828      H4836   1.087       .  S
C4829      H4837   1.087       .  S
C4829      C4830   1.348       .  D
C4830      H4838   1.086       .  S
C4839      C4847   1.488       .  S
C4839      C4840   1.403       .  A
C4839      C4844   1.409       .  A
C4840      C4841   1.397       .  A
C4840      H4849   1.083       .  S
C4841      C4842   1.406       .  A
C4841      H4850   1.082       .  S
C4842      C4845   1.489       .  S
C4842      C4843   1.404       .  A
C4843      C4844   1.403       .  A
C4843      H4851   1.083       .  S
C4844      H4852   1.081       .  S
C4845      H4853   1.087       .  S
C4845      C4846   1.345       .  D
C4846      H4854   1.086       .  S
C4847      H4855   1.087       .  S
C4847      C4848   1.348       .  D
C4848      H4856   1.085       .  S
C4857      C4865   1.489       .  S
C4857      C4858   1.405       .  A
C4857      C4862   1.405       .  A
C4858      C4859   1.404       .  A
C4858      H4867   1.083       .  S
C4859      C4860   1.408       .  A
C4859      H4868   1.081       .  S
C4860      C4863   1.488       .  S
C4860      C4861   1.404       .  A
C4861      C4862   1.396       .  A
C4861      H4869   1.084       .  S
C4862      H4870   1.082       .  S
C4863      H4871   1.087   1_655  S
C4863      C4864   1.350   1_655  D
C4864      H4872   1.085       .  S
C4865      H4873   1.087       .  S
C4865      C4866   1.346       .  D
C4866      H4874   1.086       .  S
C4875      C4883   1.482       .  S
C4875      C4876   1.402       .  A
C4875      C4880   1.407       .  A
C4876      C4877   1.399       .  A
C4876      H4885   1.083       .  S
C4877      C4878   1.406       .  A
C4877      H4886   1.082       .  S
C4878      C4881   1.478       .  S
C4878      C4879   1.401       .  A
C4879      C4880   1.395       .  A
C4879      H4887   1.084       .  S
C4880      H4888   1.083       .  S
C4881      H4889   1.087       .  S
C4881      C4882   1.346       .  D
C4882      H4890   1.086       .  S
C4883      H4891   1.087       .  S
C4883      C4884   1.342       .  D
C4884      H4892   1.086       .  S
C4893      C4901   1.490       .  S
C4893      C4894   1.404       .  A
C4893      C4898   1.407       .  A
C4894      C4895   1.398       .  A
C4894      H4903   1.084       .  S
C4895      C4896   1.408       .  A
C4895      H4904   1.080       .  S
C4896      C4899   1.496       .  S
C4896      C4897   1.407       .  A
C4897      C4898   1.403       .  A
C4897      H4905   1.083       .  S
C4898      H4906   1.081       .  S
C4899      H4907   1.087       .  S
C4899      C4900   1.351       .  D
C4900      H4908   1.083       .  S
C4901      H4909   1.087       .  S
C4901      C4902   1.349       .  D
C4902      H4910   1.085       .  S
C4911      C4919   1.484       .  S
C4911      C4912   1.401       .  A
C4911      C4916   1.406       .  A
C4912      C4913   1.401       .  A
C4912      H4921   1.083       .  S
C4913      C4914   1.409       .  A
C4913      H4922   1.082       .  S
C4914      C4917   1.488       .  S
C4914      C4915   1.403       .  A
C4915      C4916   1.401       .  A
C4915      H4923   1.083       .  S
C4916      H4924   1.083       .  S
C4917      H4925   1.087       .  S
C4917      C4918   1.345       .  D
C4918      H4926   1.087       .  S
C4919      H4927   1.086       .  S
C4919      C4920   1.342       .  D
C4920      H4928   1.087       .  S
