geometry optimzed in LAMMPS
_audit_creation_date              2020-11-30 
_audit_creation_method            'lammps2cif' 
_symmetry_space_group_name_H-M    'P1' 
_symmetry_Int_Tables_number       1 
_symmetry_cell_setting            triclinic 
loop_ 
_symmetry_equiv_pos_as_xyz 
  x,y,z 
_cell_length_a                    43.50188786 
_cell_length_b                    43.515842865707164 
_cell_length_c                    43.51871604206886 
_cell_angle_alpha                 90.00293715723689 
_cell_angle_beta                  90.04399994537934 
_cell_angle_gamma                 90.08502622960279 
loop_ 
_atom_site_label 
_atom_site_type_symbol 
_atom_site_fract_x 
_atom_site_fract_y 
_atom_site_fract_z 
_atom_site_charge 
O1          O  0.08037822  0.12838489  0.40041458    -0.74700
O2          O  0.16833816  0.12874545  0.40432153    -0.74700
O3          O  0.12435837  0.17267939  0.40279795    -0.74800
O4          O  0.12448237  0.08467822  0.40186750    -0.74800
O5          O  0.12531167  0.08512845  0.35067032    -0.74800
O6          O  0.12775993  0.17314442  0.35173490    -0.74700
O7          O  0.17047499  0.12783538  0.35314065    -0.74700
O8          O  0.08244803  0.13015873  0.34929554    -0.74800
Ni9        Ni  0.12428438  0.12863814  0.40416582     1.25400
Ni10       Ni  0.12656154  0.12913508  0.34937870     1.25400
C11         C  0.06686960  0.12916741  0.37424493     0.87500
C12         C  0.18388998  0.12805192  0.37936724     0.87400
C13         C  0.12627180  0.18747066  0.37742893     0.87500
C14         C  0.12499849  0.07038629  0.37615064     0.87600
O15         O  0.08145499  0.87846652  0.34704768    -0.74700
O16         O  0.16940777  0.87964960  0.34374298    -0.74700
O17         O  0.12585680  0.83517860  0.34483066    -0.74800
O18         O  0.12472248  0.92310506  0.34578109    -0.74800
O19         O  0.12658731  0.92265818  0.39694209    -0.74800
O20         O  0.12838481  0.83460125  0.39597539    -0.74700
O21         O  0.17134550  0.87972484  0.39495584    -0.74700
O22         O  0.08358514  0.87778274  0.39818814    -0.74800
Ni23       Ni  0.12532765  0.87913306  0.34352048     1.25400
Ni24       Ni  0.12755013  0.87865459  0.39833610     1.25400
C25         C  0.06800681  0.87808060  0.37323473     0.87500
C26         C  0.18483252  0.87978547  0.36883067     0.87400
C27         C  0.12706069  0.82036721  0.37020971     0.87500
C28         C  0.12515667  0.93740624  0.37149175     0.87600
O29         O  0.87485372  0.16874850  0.35009819    -0.74700
O30         O  0.87534865  0.08067019  0.34832368    -0.74700
O31         O  0.83107267  0.12409296  0.34929262    -0.74800
O32         O  0.91913480  0.12511924  0.34903421    -0.74800
O33         O  0.91913409  0.12352314  0.40020215    -0.74800
O34         O  0.83106950  0.12360035  0.40052854    -0.74700
O35         O  0.87489673  0.07959348  0.39947168    -0.74700
O36         O  0.87503194  0.16758188  0.40131213    -0.74800
Ni37       Ni  0.87509394  0.12472050  0.34736190     1.25400
Ni38       Ni  0.87507855  0.12355708  0.40219818     1.25400
C39         C  0.87468281  0.18266717  0.37605192     0.87500
C40         C  0.87512191  0.06555925  0.37357900     0.87400
C41         C  0.81659062  0.12337030  0.37489643     0.87500
C42         C  0.93368383  0.12421864  0.37462258     0.87600
O43         O  0.91961799  0.87451138  0.34988107    -0.74700
O44         O  0.83187748  0.87201245  0.35251720    -0.74700
O45         O  0.87453337  0.91738288  0.35078553    -0.74800
O46         O  0.87712276  0.82922789  0.35175098    -0.74800
O47         O  0.87807305  0.83008963  0.40298242    -0.74800
O48         O  0.87611656  0.91794860  0.40192258    -0.74700
O49         O  0.83324474  0.87299849  0.40356727    -0.74700
O50         O  0.92124374  0.87504382  0.40102714    -0.74800
Ni51       Ni  0.87573471  0.87327627  0.34940867     1.25400
Ni52       Ni  0.87726380  0.87404472  0.40419086     1.25400
C53         C  0.93496355  0.87484472  0.37495908     0.87500
C54         C  0.81792944  0.87211569  0.37845003     0.87400
C55         C  0.87469162  0.93221861  0.37625269     0.87500
C56         C  0.87766959  0.81518981  0.37762694     0.87600
O57         O  0.10168719  0.42244742  0.37121340    -0.74700
O58         O  0.10335154  0.33441369  0.37288112    -0.74700
O59         O  0.10218552  0.37898895  0.41600135    -0.74800
O60         O  0.10331220  0.37747846  0.32772853    -0.74800
O61         O  0.15436467  0.37871120  0.32852562    -0.74800
O62         O  0.15337333  0.37971577  0.41622698    -0.74700
O63         O  0.15460979  0.33532186  0.37286349    -0.74700
O64         O  0.15292681  0.42341361  0.37160106    -0.74800
Ni65       Ni  0.10078319  0.37836108  0.37189378     1.25400
Ni66       Ni  0.15560899  0.37939841  0.37234979     1.25400
C67         C  0.12705098  0.43742705  0.37097669     0.87500
C68         C  0.12921296  0.32039381  0.37315298     0.87400
C69         C  0.12776946  0.37876558  0.43065760     0.87500
C70         C  0.12915564  0.37746539  0.31347199     0.87600
O71         O  0.15386330  0.37005427  0.66582690    -0.74700
O72         O  0.15168827  0.37219301  0.57780447    -0.74700
O73         O  0.15303412  0.41520479  0.62279647    -0.74800
O74         O  0.15268793  0.32719145  0.62107761    -0.74800
O75         O  0.10147724  0.32726984  0.62202059    -0.74800
O76         O  0.10184816  0.41538051  0.62369719    -0.74700
O77         O  0.10051683  0.37240079  0.57895340    -0.74700
O78         O  0.10265648  0.37041929  0.66689246    -0.74800
Ni79       Ni  0.15463718  0.37116657  0.62180205     1.25400
Ni80       Ni  0.09980499  0.37135417  0.62293975     1.25400
C81         C  0.12858193  0.36958691  0.68087347     0.87500
C82         C  0.12573246  0.37301441  0.56383295     0.87400
C83         C  0.12753436  0.42985794  0.62352217     0.87500
C84         C  0.12704264  0.31269059  0.62144590     0.87600
O85         O  0.10181463  0.67339655  0.37012760    -0.74700
O86         O  0.09970611  0.58532079  0.37094075    -0.74700
O87         O  0.09889976  0.62964960  0.41441641    -0.74800
O88         O  0.10272356  0.62910976  0.32661038    -0.74800
O89         O  0.15388842  0.62863790  0.32875530    -0.74800
O90         O  0.14988045  0.62772988  0.41649009    -0.74700
O91         O  0.15094157  0.58423494  0.37206679    -0.74700
O92         O  0.15294155  0.67225678  0.37321348    -0.74800
Ni93       Ni  0.09895924  0.62941760  0.37042919     1.25400
Ni94       Ni  0.15373009  0.62819651  0.37271951     1.25400
C95         C  0.12772413  0.68734018  0.37181120     0.87500
C96         C  0.12499351  0.57029162  0.37164535     0.87400
C97         C  0.12376094  0.62841606  0.43009928     0.87500
C98         C  0.12892741  0.62879029  0.31317543     0.87600
O99         O  0.09753533  0.66562061  0.62244543    -0.74700
O100        O  0.09828679  0.57765038  0.62135722    -0.74700
O101        O  0.09695384  0.62114258  0.66577221    -0.74800
O102        O  0.09890648  0.62230545  0.57793233    -0.74800
O103        O  0.14993486  0.62166173  0.57914226    -0.74800
O104        O  0.14818455  0.62292104  0.66688218    -0.74700
O105        O  0.14940385  0.57804509  0.62361787    -0.74700
O106        O  0.14880950  0.66614172  0.62220483    -0.74800
Ni107      Ni  0.09609536  0.62162031  0.62183948     1.25400
Ni108      Ni  0.15091382  0.62215071  0.62302571     1.25400
C109        C  0.12304753  0.68033731  0.62207111     0.87500
C110        C  0.12391904  0.56325576  0.62230724     0.87400
C111        C  0.12225828  0.62242105  0.68075792     0.87500
C112        C  0.12480306  0.62247337  0.56388839     0.87600
O113        O  0.62482143  0.09685850  0.41685033    -0.74700
O114        O  0.62465593  0.10139912  0.32906078    -0.74700
O115        O  0.66886989  0.09842563  0.37295894    -0.74800
O116        O  0.58071716  0.10002835  0.37305538    -0.74800
O117        O  0.58178294  0.15114524  0.37556667    -0.74800
O118        O  0.66956206  0.14954944  0.37581831    -0.74700
O119        O  0.62573280  0.15243405  0.33156634    -0.74700
O120        O  0.62554959  0.14795074  0.41935282    -0.74800
Ni121      Ni  0.62473519  0.09734012  0.37284729     1.25400
Ni122      Ni  0.62570418  0.15207274  0.37561051     1.25400
C123        C  0.62527044  0.12166748  0.43264135     0.87500
C124        C  0.62499201  0.12765069  0.31571456     0.87400
C125        C  0.68371949  0.12381799  0.37493604     0.87500
C126        C  0.56672985  0.12588921  0.37474113     0.87600
O127        O  0.63153974  0.10032721  0.66890573    -0.74700
O128        O  0.62969058  0.09829829  0.58080967    -0.74700
O129        O  0.67458310  0.10066363  0.62415882    -0.74800
O130        O  0.58683507  0.09783764  0.62577691    -0.74800
O131        O  0.58514519  0.14887556  0.62423589    -0.74800
O132        O  0.67299838  0.15179501  0.62334692    -0.74700
O133        O  0.62847331  0.14939531  0.57996702    -0.74700
O134        O  0.62943604  0.15147380  0.66754556    -0.74800
Ni135      Ni  0.63076894  0.09743577  0.62492107     1.25400
Ni136      Ni  0.62901166  0.15218618  0.62370649     1.25400
C137        C  0.63024394  0.12631616  0.68270430     0.87500
C138        C  0.62825159  0.12363801  0.56583265     0.87400
C139        C  0.68832249  0.12671350  0.62375545     0.87500
C140        C  0.57138568  0.12282518  0.62520844     0.87600
O141        O  0.33125906  0.14924090  0.38053557    -0.74700
O142        O  0.41933008  0.14955618  0.37921387    -0.74700
O143        O  0.37491336  0.14979155  0.33596631    -0.74800
O144        O  0.37604462  0.14905451  0.42368006    -0.74800
O145        O  0.37609368  0.09797956  0.42343028    -0.74800
O146        O  0.37453495  0.09854260  0.33539907    -0.74700
O147        O  0.41923124  0.09835665  0.37850094    -0.74700
O148        O  0.33130687  0.09802659  0.38003521    -0.74800
Ni149      Ni  0.37533582  0.15122588  0.37987709     1.25400
Ni150      Ni  0.37528257  0.09639046  0.37937511     1.25400
C151        C  0.31676271  0.12357471  0.38025829     0.87500
C152        C  0.43377936  0.12394844  0.37818937     0.87400
C153        C  0.37495402  0.12434147  0.32123053     0.87500
C154        C  0.37629516  0.12350059  0.43818142     0.87600
O155        O  0.33605122  0.09306654  0.63083395    -0.74700
O156        O  0.42406654  0.09644407  0.63053193    -0.74700
O157        O  0.38004677  0.09522846  0.67460231    -0.74800
O158        O  0.37996796  0.09407262  0.58672577    -0.74800
O159        O  0.37857824  0.14512646  0.58607800    -0.74800
O160        O  0.37830754  0.14641025  0.67387645    -0.74700
O161        O  0.42226526  0.14748553  0.62998746    -0.74700
O162        O  0.33452251  0.14427591  0.62965831    -0.74800
Ni163      Ni  0.38012113  0.09286251  0.63071378     1.25400
Ni164      Ni  0.37834450  0.14762852  0.62991584     1.25400
C165        C  0.32082571  0.11822351  0.63020783     0.87500
C166        C  0.43778938  0.12255837  0.63007002     0.87400
C167        C  0.37922941  0.12103047  0.68871925     0.87500
C168        C  0.37933345  0.11939143  0.57177746     0.87600
O169        O  0.85091350  0.66919095  0.37890202    -0.74700
O170        O  0.84564870  0.58134909  0.37702209    -0.74700
O171        O  0.84877358  0.62427997  0.42188588    -0.74800
O172        O  0.84796803  0.62652132  0.33395245    -0.74800
O173        O  0.89914065  0.62296936  0.33351913    -0.74800
O174        O  0.89985799  0.62174753  0.42124679    -0.74700
O175        O  0.89680843  0.57849975  0.37661338    -0.74700
O176        O  0.90204390  0.66638776  0.37778916    -0.74800
Ni177      Ni  0.84648799  0.62542052  0.37795765     1.25400
Ni178      Ni  0.90127582  0.62229646  0.37731794     1.25400
C179        C  0.87729773  0.68229886  0.37824436     0.87500
C180        C  0.87038850  0.56543828  0.37663423     0.87400
C181        C  0.87452943  0.62288328  0.43613794     0.87500
C182        C  0.87347829  0.62522232  0.31933834     0.87600
O183        O  0.84470381  0.66668536  0.62726718    -0.74700
O184        O  0.84778703  0.57875137  0.62917934    -0.74700
O185        O  0.84631515  0.62378253  0.67220703    -0.74800
O186        O  0.84592691  0.62175632  0.58432854    -0.74800
O187        O  0.89701046  0.62369643  0.58398040    -0.74800
O188        O  0.89756931  0.62506250  0.67196813    -0.74700
O189        O  0.89885216  0.58063305  0.62860637    -0.74700
O190        O  0.89589866  0.66843399  0.62702402    -0.74800
Ni191      Ni  0.84435919  0.62267934  0.62826983     1.25400
Ni192      Ni  0.89915086  0.62455491  0.62791884     1.25400
C193        C  0.86981874  0.68206184  0.62680615     0.87500
C194        C  0.87388951  0.56507411  0.62910840     0.87400
C195        C  0.87200886  0.62440868  0.68655417     0.87500
C196        C  0.87134324  0.62229982  0.56955180     0.87600
O197        O  0.84891969  0.32935890  0.37760778    -0.74700
O198        O  0.84630780  0.41735913  0.37612046    -0.74700
O199        O  0.84842678  0.37250542  0.33289678    -0.74800
O200        O  0.84712876  0.37411409  0.42089983    -0.74800
O201        O  0.89831385  0.37505420  0.42135670    -0.74800
O202        O  0.89964237  0.37473270  0.33359115    -0.74700
O203        O  0.89752903  0.41883961  0.37699155    -0.74700
O204        O  0.90015324  0.33084631  0.37742294    -0.74800
Ni205      Ni  0.84585525  0.37328512  0.37687285     1.25400
Ni206      Ni  0.90072272  0.37492742  0.37744256     1.25400
C207        C  0.87493434  0.31561022  0.37722021     0.87500
C208        C  0.87153031  0.43258402  0.37594864     0.87400
C209        C  0.87426161  0.37329614  0.31879507     0.87500
C210        C  0.87258968  0.37482103  0.43567962     0.87600
O211        O  0.90319113  0.37320117  0.67130995    -0.74700
O212        O  0.90253090  0.37457276  0.58330791    -0.74700
O213        O  0.90081062  0.41790098  0.62790556    -0.74800
O214        O  0.90497881  0.33010026  0.62665423    -0.74800
O215        O  0.85372031  0.32787541  0.62675283    -0.74800
O216        O  0.84974925  0.41562264  0.62813212    -0.74700
O217        O  0.85138157  0.37242700  0.58351097    -0.74700
O218        O  0.85195807  0.37123005  0.67148668    -0.74800
Ni219      Ni  0.90470715  0.37405907  0.62729581     1.25400
Ni220      Ni  0.84988534  0.37168322  0.62750329     1.25400
C221        C  0.87765035  0.37191340  0.68586876     0.87500
C222        C  0.87689244  0.37349003  0.56885523     0.87400
C223        C  0.87460924  0.43136712  0.62803458     0.87500
C224        C  0.87996763  0.31458717  0.62615289     0.87600
O225        O  0.33267428  0.90695847  0.36905527    -0.74700
O226        O  0.42071046  0.90456661  0.37124265    -0.74700
O227        O  0.37773415  0.90514285  0.32591884    -0.74800
O228        O  0.37555720  0.90642653  0.41399534    -0.74800
O229        O  0.37329139  0.85531732  0.41458034    -0.74800
O230        O  0.37701759  0.85398988  0.32679349    -0.74700
O231        O  0.41900334  0.85355058  0.37265928    -0.74700
O232        O  0.33128263  0.85574129  0.36884806    -0.74800
Ni233      Ni  0.37672625  0.90762319  0.36998226     1.25400
Ni234      Ni  0.37510437  0.85285709  0.37071661     1.25400
C235        C  0.31750129  0.88171275  0.36889916     0.87500
C236        C  0.43449463  0.87856166  0.37253956     0.87400
C237        C  0.37799367  0.87927533  0.31180223     0.87500
C238        C  0.37401260  0.88106584  0.42884273     0.87600
O239        O  0.32656537  0.84891164  0.62021706    -0.74700
O240        O  0.41425499  0.85025613  0.62004950    -0.74700
O241        O  0.37064710  0.84910319  0.66407957    -0.74800
O242        O  0.37021797  0.85042876  0.57605956    -0.74800
O243        O  0.37054178  0.90160234  0.57679955    -0.74800
O244        O  0.36904125  0.90029874  0.66466404    -0.74700
O245        O  0.41396103  0.90140470  0.62149168    -0.74700
O246        O  0.32579875  0.90015858  0.61979453    -0.74800
Ni247      Ni  0.37045357  0.84786693  0.62004984     1.25400
Ni248      Ni  0.36982430  0.90271456  0.62072152     1.25400
C249        C  0.31172841  0.87426692  0.61969196     0.87500
C250        C  0.42864715  0.87587049  0.62128855     0.87400
C251        C  0.36959113  0.87454033  0.67886921     0.87500
C252        C  0.37023352  0.87623394  0.56188859     0.87600
O253        O  0.61737366  0.85052895  0.67137659    -0.74700
O254        O  0.62118142  0.84906043  0.58358480    -0.74700
O255        O  0.66321317  0.84825595  0.62934252    -0.74800
O256        O  0.57544178  0.85135457  0.62556879    -0.74800
O257        O  0.57720716  0.90249796  0.62520013    -0.74800
O258        O  0.66503335  0.89944066  0.62767079    -0.74700
O259        O  0.62243778  0.90017994  0.58265733    -0.74700
O260        O  0.61998042  0.90168743  0.67060633    -0.74800
Ni261      Ni  0.61923643  0.84798034  0.62751764     1.25400
Ni262      Ni  0.62121905  0.90278342  0.62655532     1.25400
C263        C  0.61802242  0.87633595  0.68547264     0.87500
C264        C  0.62227608  0.87432611  0.56855463     0.87400
C265        C  0.67858023  0.87335672  0.62874170     0.87500
C266        C  0.56179926  0.87742028  0.62466361     0.87600
O267        O  0.62600655  0.85096498  0.42105134    -0.74700
O268        O  0.62548693  0.84963477  0.33317001    -0.74700
O269        O  0.66971076  0.84835884  0.37707767    -0.74800
O270        O  0.58187353  0.85229597  0.37736730    -0.74800
O271        O  0.58403976  0.90332324  0.37655879    -0.74800
O272        O  0.67188040  0.89962862  0.37598793    -0.74700
O273        O  0.62782400  0.90079619  0.33236156    -0.74700
O274        O  0.62828611  0.90204771  0.42033141    -0.74800
Ni275      Ni  0.62569273  0.84849041  0.37717954     1.25400
Ni276      Ni  0.62808270  0.90327522  0.37629918     1.25400
C277        C  0.62724504  0.87671702  0.43527576     0.87500
C278        C  0.62651703  0.87498134  0.31826244     0.87400
C279        C  0.68513646  0.87340950  0.37642139     0.87500
C280        C  0.56832148  0.87844060  0.37707267     0.87600
O281        O  0.12016487  0.82760468  0.64881241    -0.74700
O282        O  0.12238200  0.91550662  0.64937408    -0.74700
O283        O  0.07731569  0.87261721  0.64996707    -0.74800
O284        O  0.16524158  0.87038539  0.64793203    -0.74800
O285        O  0.16417995  0.87094695  0.59671377    -0.74800
O286        O  0.07630506  0.87291126  0.59893143    -0.74700
O287        O  0.12151436  0.91585437  0.59814930    -0.74700
O288        O  0.11936274  0.82774201  0.59762800    -0.74800
Ni289      Ni  0.12131145  0.87151490  0.65083260     1.25400
Ni290      Ni  0.12023393  0.87185443  0.59602374     1.25400
C291        C  0.11949224  0.81313873  0.62321812     0.87500
C292        C  0.12266258  0.93015242  0.62385667     0.87400
C293        C  0.06214467  0.87326015  0.62476726     0.87500
C294        C  0.17918308  0.87025420  0.62201714     0.87600
O295        O  0.08575965  0.12301831  0.65230980    -0.74700
O296        O  0.17369298  0.12008848  0.65242693    -0.74700
O297        O  0.13122588  0.16568982  0.65172639    -0.74800
O298        O  0.12798523  0.07760648  0.65292930    -0.74800
O299        O  0.12945662  0.07702689  0.60172843    -0.74800
O300        O  0.12961958  0.16496420  0.60051243    -0.74700
O301        O  0.17361328  0.12090772  0.60121282    -0.74700
O302        O  0.08577378  0.12100970  0.60127638    -0.74800
Ni303      Ni  0.12970920  0.12164409  0.65419771     1.25400
Ni304      Ni  0.12966068  0.12095861  0.59937342     1.25400
C305        C  0.07113762  0.12221337  0.62673493     0.87500
C306        C  0.18815067  0.12035459  0.62679449     0.87400
C307        C  0.13054576  0.17981367  0.62589579     0.87500
C308        C  0.12799652  0.06283733  0.62746549     0.87600
O309        O  0.83473502  0.12542961  0.65475445    -0.74700
O310        O  0.92251079  0.12225664  0.65594782    -0.74700
O311        O  0.88051528  0.16787267  0.65527971    -0.74800
O312        O  0.87657082  0.07993109  0.65524737    -0.74800
O313        O  0.87680880  0.08004184  0.60422113    -0.74800
O314        O  0.88128288  0.16765645  0.60405288    -0.74700
O315        O  0.92308810  0.12185230  0.60489511    -0.74700
O316        O  0.83540528  0.12602579  0.60346294    -0.74800
Ni317      Ni  0.87859283  0.12388336  0.65715199     1.25400
Ni318      Ni  0.87923199  0.12387333  0.60234948     1.25400
C319        C  0.82070745  0.12596462  0.62890392     0.87500
C320        C  0.93743500  0.12170340  0.63063753     0.87400
C321        C  0.88154373  0.18222108  0.62960045     0.87500
C322        C  0.87544701  0.06535691  0.62971271     0.87600
O323        O  0.91302040  0.87424640  0.59684374    -0.74700
O324        O  0.82520273  0.87250158  0.59795742    -0.74700
O325        O  0.86824110  0.91720551  0.59785278    -0.74800
O326        O  0.87006222  0.82930057  0.59696416    -0.74800
O327        O  0.87020114  0.82893157  0.64822254    -0.74800
O328        O  0.86923957  0.91680976  0.64886140    -0.74700
O329        O  0.82586701  0.87218702  0.64918756    -0.74700
O330        O  0.91384671  0.87346421  0.64786599    -0.74800
Ni331      Ni  0.86909818  0.87330375  0.59558818     1.25400
Ni332      Ni  0.86983584  0.87283082  0.65036330     1.25400
C333        C  0.92810646  0.87405377  0.62208646     0.87500
C334        C  0.81107363  0.87242351  0.62374392     0.87400
C335        C  0.86855560  0.93168777  0.62344109     0.87500
C336        C  0.87035911  0.81467705  0.62249089     0.87600
O337        O  0.39716943  0.17215521  0.13073787    -0.74700
O338        O  0.39808959  0.08421530  0.12933351    -0.74700
O339        O  0.39741385  0.12877159  0.08612364    -0.74800
O340        O  0.39797804  0.12751460  0.17401023    -0.74800
O341        O  0.34675333  0.12649857  0.17418296    -0.74800
O342        O  0.34632640  0.12834451  0.08618794    -0.74700
O343        O  0.34700567  0.08372977  0.12919562    -0.74700
O344        O  0.34598864  0.17156659  0.13099788    -0.74800
Ni345      Ni  0.39948213  0.12822782  0.13005675     1.25400
Ni346      Ni  0.34469763  0.12757216  0.13018301     1.25400
C347        C  0.37141566  0.18641144  0.13087060     0.87500
C348        C  0.37262655  0.06934280  0.12890638     0.87400
C349        C  0.37181786  0.12844655  0.07151044     0.87500
C350        C  0.37244403  0.12633709  0.18858105     0.87600
O351        O  0.35095361  0.12018944  0.92341214    -0.74700
O352        O  0.35080867  0.11981952  0.83552090    -0.74700
O353        O  0.35061109  0.07603711  0.87924196    -0.74800
O354        O  0.35115122  0.16400358  0.87962208    -0.74800
O355        O  0.40242531  0.16377600  0.87903695    -0.74800
O356        O  0.40183917  0.07584339  0.87973032    -0.74700
O357        O  0.40211263  0.11957795  0.83555291    -0.74700
O358        O  0.40205225  0.12042268  0.92338685    -0.74800
Ni359      Ni  0.34904501  0.12000746  0.87946628     1.25400
Ni360      Ni  0.40392927  0.11984669  0.87945456     1.25400
C361        C  0.37654639  0.12080568  0.93802292     0.87500
C362        C  0.37645734  0.11946918  0.82113066     0.87400
C363        C  0.37615823  0.06143102  0.87919714     0.87500
C364        C  0.37688585  0.17833707  0.87955390     0.87600
O365        O  0.39370996  0.82557531  0.87030433    -0.74700
O366        O  0.39672730  0.91356212  0.87058036    -0.74700
O367        O  0.39477502  0.86971683  0.91432311    -0.74800
O368        O  0.39569198  0.86948713  0.82643657    -0.74800
O369        O  0.34447865  0.87119998  0.82586473    -0.74800
O370        O  0.34366221  0.87153877  0.91389181    -0.74700
O371        O  0.34553314  0.91514033  0.86978289    -0.74700
O372        O  0.34253465  0.82720907  0.87006526    -0.74800
Ni373      Ni  0.39704353  0.86949683  0.87041235     1.25400
Ni374      Ni  0.34222500  0.87128295  0.86986259     1.25400
C375        C  0.36762394  0.81184892  0.87027903     0.87500
C376        C  0.37157811  0.92885728  0.87032170     0.87400
C377        C  0.36911365  0.87119866  0.92869076     0.87500
C378        C  0.37025103  0.87027882  0.81166005     0.87600
O379        O  0.34933140  0.87769326  0.07681832    -0.74700
O380        O  0.35070240  0.87838891  0.16480868    -0.74700
O381        O  0.35109492  0.92179499  0.12081671    -0.74800
O382        O  0.34891450  0.83404963  0.12090129    -0.74800
O383        O  0.40011937  0.83284515  0.11891202    -0.74800
O384        O  0.40218812  0.92081232  0.12117832    -0.74700
O385        O  0.40191865  0.87592345  0.16409275    -0.74700
O386        O  0.40047791  0.87758200  0.07616710    -0.74800
Ni387      Ni  0.34819041  0.87801108  0.12085433     1.25400
Ni388      Ni  0.40301162  0.87676327  0.12006157     1.25400
C389        C  0.37472971  0.87712178  0.06191648     0.87500
C390        C  0.37654330  0.87760814  0.17889113     0.87400
C391        C  0.37695001  0.93591740  0.12151480     0.87500
C392        C  0.37412846  0.81898962  0.11954418     0.87600
O393        O  0.87704144  0.34940312  0.17201509    -0.74700
O394        O  0.87750809  0.34868654  0.08429426    -0.74700
O395        O  0.92126377  0.34887361  0.12836103    -0.74800
O396        O  0.83321817  0.34954885  0.12784889    -0.74800
O397        O  0.83395477  0.40079539  0.12850427    -0.74800
O398        O  0.92170590  0.39999650  0.12718577    -0.74700
O399        O  0.87725081  0.39977096  0.08372632    -0.74700
O400        O  0.87859824  0.40061944  0.17172684    -0.74800
Ni401      Ni  0.87723660  0.34730084  0.12815588     1.25400
Ni402      Ni  0.87787495  0.40212500  0.12775133     1.25400
C403        C  0.87804213  0.37508078  0.18633182     0.87500
C404        C  0.87733736  0.37400646  0.06938717     0.87400
C405        C  0.93605496  0.37433867  0.12782246     0.87500
C406        C  0.81913365  0.37538111  0.12841155     0.87600
O407        O  0.92140894  0.34945282  0.87635752    -0.74700
O408        O  0.83330874  0.35052556  0.87865337    -0.74700
O409        O  0.87641094  0.34924406  0.83345063    -0.74800
O410        O  0.87846470  0.35070025  0.92143148    -0.74800
O411        O  0.87892002  0.40177553  0.92063793    -0.74800
O412        O  0.87684769  0.40046413  0.83273890    -0.74700
O413        O  0.83395080  0.40170928  0.87764145    -0.74700
O414        O  0.92190847  0.40059280  0.87569065    -0.74800
Ni415      Ni  0.87736080  0.34814538  0.87749495     1.25400
Ni416      Ni  0.87794829  0.40293837  0.87664970     1.25400
C417        C  0.93624469  0.37491825  0.87577718     0.87500
C418        C  0.81909499  0.37629714  0.87869478     0.87400
C419        C  0.87623705  0.37466882  0.81860531     0.87500
C420        C  0.87899022  0.37649474  0.93566969     0.87600
O421        O  0.12590390  0.35162868  0.07783022    -0.74700
O422        O  0.12828485  0.34982978  0.16571769    -0.74700
O423        O  0.08322914  0.35165939  0.12298481    -0.74800
O424        O  0.17108092  0.34992397  0.12060975    -0.74800
O425        O  0.17200187  0.40113537  0.12263737    -0.74800
O426        O  0.08421828  0.40280673  0.12304965    -0.74700
O427        O  0.12818908  0.40114814  0.16663289    -0.74700
O428        O  0.12782741  0.40276940  0.07866227    -0.74800
Ni429      Ni  0.12709916  0.34892644  0.12171603     1.25400
Ni430      Ni  0.12812924  0.40379595  0.12272986     1.25400
C431        C  0.12666774  0.37744619  0.06369639     0.87500
C432        C  0.12820779  0.37523258  0.18053328     0.87400
C433        C  0.06917995  0.37752395  0.12338446     0.87500
C434        C  0.18599288  0.37528431  0.12161653     0.87600
O435        O  0.17222770  0.39533036  0.87260481    -0.74700
O436        O  0.08423198  0.39582165  0.87101540    -0.74700
O437        O  0.12749887  0.39686592  0.91552590    -0.74800
O438        O  0.12872024  0.39467002  0.82779794    -0.74800
O439        O  0.12885498  0.34342473  0.82862484    -0.74800
O440        O  0.12674240  0.34569606  0.91678281    -0.74700
O441        O  0.08389955  0.34466506  0.87173316    -0.74700
O442        O  0.17183788  0.34411393  0.87377413    -0.74800
Ni443      Ni  0.12823166  0.39747484  0.87163734     1.25400
Ni444      Ni  0.12785441  0.34262874  0.87275752     1.25400
C445        C  0.18651390  0.36964387  0.87388740     0.87500
C446        C  0.06949684  0.37028656  0.87120433     0.87400
C447        C  0.12653013  0.37167844  0.93067518     0.87500
C448        C  0.12854833  0.36883929  0.81374706     0.87600
O449        O  0.65333153  0.83411786  0.12599822    -0.74700
O450        O  0.65202975  0.92225619  0.12697017    -0.74700
O451        O  0.65350189  0.87786137  0.17054909    -0.74800
O452        O  0.65195124  0.87878051  0.08260323    -0.74800
O453        O  0.60076631  0.87811260  0.08343351    -0.74800
O454        O  0.60226682  0.87649540  0.17142409    -0.74700
O455        O  0.60084977  0.92135749  0.12827814    -0.74700
O456        O  0.60206288  0.83339723  0.12670559    -0.74800
Ni457      Ni  0.65453545  0.87825575  0.12652357     1.25400
Ni458      Ni  0.59967037  0.87731642  0.12748906     1.25400
C459        C  0.62785379  0.81927761  0.12588436     0.87500
C460        C  0.62619321  0.93635872  0.12786231     0.87400
C461        C  0.62814812  0.87714730  0.18546517     0.87500
C462        C  0.62613258  0.87888650  0.06847223     0.87600
O463        O  0.64566288  0.83450947  0.87674791    -0.74700
O464        O  0.64618238  0.92229700  0.87604936    -0.74700
O465        O  0.64634363  0.87880125  0.92053427    -0.74800
O466        O  0.64529715  0.87828116  0.83251510    -0.74800
O467        O  0.59405662  0.87770590  0.83303196    -0.74800
O468        O  0.59515329  0.87930961  0.92099449    -0.74700
O469        O  0.59503310  0.92260047  0.87608636    -0.74700
O470        O  0.59443285  0.83446541  0.87798310    -0.74800
Ni471      Ni  0.64768023  0.87843435  0.87647166     1.25400
Ni472      Ni  0.59282902  0.87853673  0.87705902     1.25400
C473        C  0.62006017  0.81999024  0.87733975     0.87500
C474        C  0.62072935  0.93703045  0.87553506     0.87400
C475        C  0.62086557  0.87897729  0.93531595     0.87500
C476        C  0.61952097  0.87822705  0.81828170     0.87600
O477        O  0.65251376  0.17291269  0.87419298    -0.74700
O478        O  0.65245047  0.08494264  0.87453535    -0.74700
O479        O  0.65382829  0.12847289  0.83050077    -0.74800
O480        O  0.65140583  0.12903345  0.91824792    -0.74800
O481        O  0.60029267  0.12914013  0.91701807    -0.74800
O482        O  0.60258075  0.12860808  0.82896201    -0.74700
O483        O  0.60133062  0.08497593  0.87320529    -0.74700
O484        O  0.60127933  0.17285289  0.87245925    -0.74800
Ni485      Ni  0.65436223  0.12889390  0.87442299     1.25400
Ni486      Ni  0.59953427  0.12891464  0.87288507     1.25400
C487        C  0.62688671  0.18734955  0.87301185     0.87500
C488        C  0.62687400  0.07036424  0.87398694     0.87400
C489        C  0.62865042  0.12805285  0.81529720     0.87500
C490        C  0.62551494  0.12885531  0.93225212     0.87600
O491        O  0.65351608  0.17202669  0.12553168    -0.74700
O492        O  0.65313373  0.08416880  0.12483233    -0.74700
O493        O  0.65395078  0.12831145  0.08107976    -0.74800
O494        O  0.65239766  0.12768465  0.16904826    -0.74800
O495        O  0.60109928  0.12922586  0.16802412    -0.74800
O496        O  0.60284729  0.12743706  0.08013618    -0.74700
O497        O  0.60193004  0.08412280  0.12501870    -0.74700
O498        O  0.60230233  0.17231817  0.12320723    -0.74800
Ni499      Ni  0.65506661  0.12806225  0.12513523     1.25400
Ni500      Ni  0.60020175  0.12826819  0.12404918     1.25400
C501        C  0.62802579  0.18664854  0.12458427     0.87500
C502        C  0.62756904  0.06959640  0.12490657     0.87400
C503        C  0.62866491  0.12793149  0.06597704     0.87500
C504        C  0.62646024  0.12840427  0.18290498     0.87600
O505        O  0.12360477  0.59863914  0.07948484    -0.74700
O506        O  0.12770523  0.60219984  0.16718380    -0.74700
O507        O  0.08157193  0.59985367  0.12528746    -0.74800
O508        O  0.16936902  0.60100507  0.12109575    -0.74800
O509        O  0.16875055  0.65215171  0.11944931    -0.74800
O510        O  0.08074741  0.65098803  0.12312484    -0.74700
O511        O  0.12638790  0.65341798  0.16517569    -0.74700
O512        O  0.12305965  0.64965122  0.07746330    -0.74800
Ni513      Ni  0.12555694  0.59861582  0.12338505     1.25400
Ni514      Ni  0.12471481  0.65338977  0.12125048     1.25400
C515        C  0.12299537  0.62351752  0.06384389     0.87500
C516        C  0.12743800  0.62839067  0.18058192     0.87400
C517        C  0.06661846  0.62516988  0.12456694     0.87500
C518        C  0.18355514  0.62670548  0.11914033     0.87600
O519        O  0.16365440  0.64881882  0.87024756    -0.74700
O520        O  0.07562323  0.64793937  0.87225798    -0.74700
O521        O  0.12068841  0.64910389  0.91495333    -0.74800
O522        O  0.11874214  0.64800199  0.82732015    -0.74800
O523        O  0.11797515  0.59677685  0.82793676    -0.74800
O524        O  0.12218397  0.59808537  0.91585819    -0.74700
O525        O  0.07625417  0.59688294  0.87398413    -0.74700
O526        O  0.16393016  0.59754524  0.86966067    -0.74800
Ni527      Ni  0.11964305  0.65029172  0.87115062     1.25400
Ni528      Ni  0.12009000  0.59549121  0.87188699     1.25400
C529        C  0.17820840  0.62326491  0.86958317     0.87500
C530        C  0.06132655  0.62217329  0.87362946     0.87400
C531        C  0.12198842  0.62393751  0.93003744     0.87500
C532        C  0.11796387  0.62223151  0.81316669     0.87600
O533        O  0.91333507  0.59921626  0.87745816    -0.74700
O534        O  0.82530222  0.59818916  0.87753004    -0.74700
O535        O  0.86943781  0.59938908  0.83338721    -0.74800
O536        O  0.86944855  0.59796740  0.92135365    -0.74800
O537        O  0.86916232  0.64907385  0.92215420    -0.74800
O538        O  0.86873698  0.65058732  0.83424959    -0.74700
O539        O  0.82502509  0.64940394  0.87825710    -0.74700
O540        O  0.91287382  0.65029545  0.87807265    -0.74800
Ni541      Ni  0.86937257  0.59685389  0.87738042     1.25400
Ni542      Ni  0.86891704  0.65164589  0.87821976     1.25400
C543        C  0.92773409  0.62494558  0.87786025     0.87500
C544        C  0.81066219  0.62369746  0.87808594     0.87400
C545        C  0.86901609  0.62525324  0.81931082     0.87500
C546        C  0.86964764  0.62326958  0.93635053     0.87600
O547        O  0.87544340  0.59984700  0.17179380    -0.74700
O548        O  0.87469380  0.60096894  0.08401163    -0.74700
O549        O  0.91915309  0.60107040  0.12764381    -0.74800
O550        O  0.83115264  0.59976212  0.12797070    -0.74800
O551        O  0.83051936  0.65100596  0.12920570    -0.74800
O552        O  0.91849439  0.65222982  0.12839919    -0.74700
O553        O  0.87388668  0.65207686  0.08472010    -0.74700
O554        O  0.87489348  0.65101781  0.17268303    -0.74800
Ni555      Ni  0.87516046  0.59859483  0.12785934     1.25400
Ni556      Ni  0.87445458  0.65341487  0.12875916     1.25400
C557        C  0.87541491  0.62516885  0.18676006     0.87500
C558        C  0.87370263  0.62671375  0.06977932     0.87400
C559        C  0.93338996  0.62687472  0.12813052     0.87500
C560        C  0.81639179  0.62518750  0.12840391     0.87600
O561        O  0.42074419  0.37828386  0.15450119    -0.74700
O562        O  0.33271283  0.37778117  0.15361759    -0.74700
O563        O  0.37693396  0.33407464  0.15531190    -0.74800
O564        O  0.37656720  0.42193960  0.15305420    -0.74800
O565        O  0.37715414  0.42061972  0.10200333    -0.74800
O566        O  0.37677750  0.33269833  0.10404494    -0.74700
O567        O  0.33322750  0.37650645  0.10241173    -0.74700
O568        O  0.42108965  0.37664188  0.10344781    -0.74800
Ni569      Ni  0.37672947  0.37805672  0.15594983     1.25400
Ni570      Ni  0.37712870  0.37658984  0.10115834     1.25400
C571        C  0.43556394  0.37749056  0.12910964     0.87500
C572        C  0.31848328  0.37710615  0.12784047     0.87400
C573        C  0.37666414  0.31898700  0.13006884     0.87500
C574        C  0.37669797  0.43591953  0.12719094     0.87600
O575        O  0.37500756  0.67129611  0.08937503    -0.74700
O576        O  0.37475579  0.58326048  0.09201975    -0.74700
O577        O  0.33077829  0.62728107  0.09007752    -0.74800
O578        O  0.41881891  0.62714364  0.09115428    -0.74800
O579        O  0.41813571  0.62840742  0.14220753    -0.74800
O580        O  0.33034000  0.62920291  0.14131674    -0.74700
O581        O  0.37403139  0.58481918  0.14306432    -0.74700
O582        O  0.37442760  0.67256033  0.14058073    -0.74800
Ni583      Ni  0.37483888  0.62719013  0.08880728     1.25400
Ni584      Ni  0.37421149  0.62877899  0.14358976     1.25400
C585        C  0.37475998  0.68641392  0.11463765     0.87500
C586        C  0.37470775  0.56940719  0.11798143     0.87400
C587        C  0.31614752  0.62867103  0.11556074     0.87500
C588        C  0.43311347  0.62753997  0.11687125     0.87600
O589        O  0.66991483  0.62707467  0.10197265    -0.74700
O590        O  0.58192460  0.62874908  0.09956157    -0.74700
O591        O  0.62688773  0.67204419  0.10144066    -0.74800
O592        O  0.62493834  0.58403009  0.09994834    -0.74800
O593        O  0.62478127  0.58319761  0.15118212    -0.74800
O594        O  0.62439502  0.67122968  0.15255538    -0.74700
O595        O  0.58064210  0.62693276  0.15059761    -0.74700
O596        O  0.66844628  0.62737866  0.15315250    -0.74800
Ni597      Ni  0.62596669  0.62802505  0.09889555     1.25400
Ni598      Ni  0.62450330  0.62716710  0.15368515     1.25400
C599        C  0.68368740  0.62721778  0.12801695     0.87500
C600        C  0.56665543  0.62786864  0.12473868     0.87400
C601        C  0.62567433  0.68619392  0.12724358     0.87500
C602        C  0.62465884  0.56914374  0.12531807     0.87600
O603        O  0.67195394  0.37759610  0.15034460    -0.74700
O604        O  0.58400585  0.37793428  0.15002698    -0.74700
O605        O  0.62784276  0.33369712  0.14958897    -0.74800
O606        O  0.62826302  0.42170681  0.15072202    -0.74800
O607        O  0.62800968  0.42237852  0.09948816    -0.74800
O608        O  0.62764632  0.33443282  0.09839790    -0.74700
O609        O  0.58398448  0.37853719  0.09895726    -0.74700
O610        O  0.67197404  0.37806187  0.09912863    -0.74800
Ni611      Ni  0.62800549  0.37771329  0.15199572     1.25400
Ni612      Ni  0.62794369  0.37839949  0.09717163     1.25400
C613        C  0.68646379  0.37741935  0.12475695     0.87500
C614        C  0.56934217  0.37841188  0.12445276     0.87400
C615        C  0.62747845  0.31954390  0.12376099     0.87500
C616        C  0.62819195  0.43651508  0.12529972     0.87600
O617        O  0.36992724  0.66412269  0.84355710    -0.74700
O618        O  0.37100831  0.57613342  0.84470222    -0.74700
O619        O  0.32633064  0.61949373  0.84233831    -0.74800
O620        O  0.41440089  0.62089665  0.84605777    -0.74800
O621        O  0.41215121  0.62150652  0.89717833    -0.74800
O622        O  0.32441179  0.62015524  0.89348181    -0.74700
O623        O  0.36891585  0.57676289  0.89573096    -0.74700
O624        O  0.36745776  0.66478257  0.89474717    -0.74800
Ni625      Ni  0.37046948  0.62011207  0.84232675     1.25400
Ni626      Ni  0.36816418  0.62079162  0.89708743     1.25400
C627        C  0.36865835  0.67891670  0.86895806     0.87500
C628        C  0.37017835  0.56179570  0.87037653     0.87400
C629        C  0.31084181  0.61978688  0.86736758     0.87500
C630        C  0.42781194  0.62142155  0.87229882     0.87600
O631        O  0.66392978  0.62991085  0.85175881    -0.74700
O632        O  0.57623282  0.62873413  0.84983642    -0.74700
O633        O  0.61962042  0.67331633  0.85226420    -0.74800
O634        O  0.62082146  0.58537152  0.84965414    -0.74800
O635        O  0.61956175  0.58387282  0.90078178    -0.74800
O636        O  0.61827923  0.67180004  0.90344354    -0.74700
O637        O  0.57482100  0.62712292  0.90094678    -0.74700
O638        O  0.66309282  0.62810734  0.90295906    -0.74800
Ni639      Ni  0.62015170  0.62940638  0.84908857     1.25400
Ni640      Ni  0.61889121  0.62771699  0.90388960     1.25400
C641        C  0.67798692  0.62901619  0.87755209     0.87500
C642        C  0.56096162  0.62779243  0.87492565     0.87400
C643        C  0.61866264  0.68706292  0.87828466     0.87500
C644        C  0.62079866  0.57008690  0.87480187     0.87600
O645        O  0.67125112  0.37891936  0.90249980    -0.74700
O646        O  0.58330644  0.37709945  0.90087978    -0.74700
O647        O  0.62816132  0.33424260  0.90104842    -0.74800
O648        O  0.62625224  0.42208003  0.90209764    -0.74800
O649        O  0.62719664  0.42284646  0.85094493    -0.74800
O650        O  0.62861511  0.33486120  0.84983337    -0.74700
O651        O  0.58394507  0.37816305  0.84968922    -0.74700
O652        O  0.67208123  0.37980351  0.85126523    -0.74800
Ni653      Ni  0.62723065  0.37809569  0.90343636     1.25400
Ni654      Ni  0.62802928  0.37892769  0.84858830     1.25400
C655        C  0.68614813  0.37969613  0.87715262     0.87500
C656        C  0.56909910  0.37740235  0.87509072     0.87400
C657        C  0.62869784  0.32006177  0.87529422     0.87500
C658        C  0.62603131  0.43699511  0.87673287     0.87600
O659        O  0.37986763  0.32538669  0.85226388    -0.74700
O660        O  0.37604844  0.41323398  0.85150571    -0.74700
O661        O  0.42188146  0.37132117  0.85224533    -0.74800
O662        O  0.33407193  0.36722605  0.85129541    -0.74800
O663        O  0.33332489  0.36868765  0.90250507    -0.74800
O664        O  0.42141110  0.37078207  0.90343989    -0.74700
O665        O  0.37621489  0.41368798  0.90257118    -0.74700
O666        O  0.37828994  0.32570867  0.90344078    -0.74800
Ni667      Ni  0.37799531  0.36927517  0.85002038     1.25400
Ni668      Ni  0.37732282  0.36972740  0.90483084     1.25400
C669        C  0.37954358  0.31103963  0.87794350     0.87500
C670        C  0.37560178  0.42811181  0.87693730     0.87400
C671        C  0.43616919  0.37143776  0.87797675     0.87500
C672        C  0.31923430  0.36737313  0.87667672     0.87600
C673        C  0.52047109  0.35771383  0.89710167    -0.20600
C674        C  0.53507454  0.37618265  0.87503300    -0.07100
C675        C  0.51694582  0.39327477  0.85413539     0.13700
C676        C  0.48477246  0.39123545  0.85582450    -0.20600
C677        C  0.47018346  0.37278994  0.87793691    -0.07100
C678        C  0.48832056  0.35564108  0.89876206     0.13700
C679        C  0.47409782  0.33422849  0.92200698    -0.24000
H680        H  0.53438589  0.34443404  0.91295836     0.15000
H681        H  0.47084006  0.40446921  0.83994810     0.15000
C682        C  0.53119322  0.41451865  0.83075090    -0.23900
H683        H  0.49181509  0.32121826  0.93497620     0.05300
H684        H  0.45903550  0.31732928  0.91016594     0.08500
H685        H  0.46046562  0.34750886  0.93894672     0.08500
H686        H  0.54481823  0.40110772  0.81390948     0.08500
H687        H  0.54627495  0.43148163  0.84247828     0.08500
H688        H  0.51348670  0.42745236  0.81769102     0.05200
C689        C  0.60754880  0.51988423  0.89814098    -0.20600
C690        C  0.62205016  0.53602960  0.87425070    -0.07100
C691        C  0.63804616  0.51937454  0.85133106     0.13700
C692        C  0.63895191  0.48716274  0.85296081    -0.20600
C693        C  0.62452230  0.47103873  0.87692151    -0.07100
C694        C  0.60842883  0.48769858  0.89976189     0.13700
C695        C  0.59122934  0.47192412  0.92539968    -0.24000
H696        H  0.59515073  0.53255888  0.91559262     0.15000
H697        H  0.65136948  0.47446645  0.83553752     0.15000
C698        C  0.65511916  0.53518584  0.82564032    -0.23900
H699        H  0.57835091  0.48855054  0.93983913     0.05300
H700        H  0.60757326  0.45972290  0.94069200     0.08500
H701        H  0.57437246  0.45537351  0.91566660     0.08500
H702        H  0.67211010  0.55163289  0.83531673     0.08500
H703        H  0.63870152  0.54752962  0.81054176     0.08500
H704        H  0.66781810  0.51856175  0.81103915     0.05200
C705        C  0.36559198  0.47663385  0.84848329    -0.20600
C706        C  0.37404825  0.46237112  0.87622477    -0.07100
C707        C  0.38098248  0.48118351  0.90197129     0.13700
C708        C  0.37944193  0.51327812  0.89902926    -0.20600
C709        C  0.37117554  0.52753140  0.87123774    -0.07100
C710        C  0.36404103  0.50872776  0.84555102     0.13700
C711        C  0.35423837  0.52186626  0.81500166    -0.24000
H712        H  0.35995510  0.46252002  0.82873176     0.15000
H713        H  0.38509187  0.52741526  0.91876094     0.15000
C714        C  0.39057283  0.46807442  0.93260589    -0.23900
H715        H  0.34813283  0.50360203  0.79823238     0.05300
H716        H  0.37329494  0.53543098  0.80480920     0.08500
H717        H  0.33367749  0.53658157  0.81807779     0.08500
H718        H  0.41139649  0.45362331  0.92975015     0.08500
H719        H  0.37154575  0.45425900  0.94250568     0.08500
H720        H  0.39621985  0.48636202  0.94951367     0.05200
C721        C  0.47742162  0.63909335  0.85068019    -0.20600
C722        C  0.46184895  0.62268591  0.87366991    -0.07100
C723        C  0.47905776  0.60803004  0.89709322     0.13700
C724        C  0.51126346  0.61041014  0.89692714    -0.20600
C725        C  0.52686218  0.62678541  0.87389072    -0.07100
C726        C  0.50959898  0.64147292  0.85048822     0.13700
C727        C  0.52461282  0.66054229  0.82572679    -0.24000
H728        H  0.46425854  0.65050168  0.83288654     0.15000
H729        H  0.52440820  0.59893505  0.91468832     0.15000
C730        C  0.46390272  0.58891176  0.92172539    -0.23900
H731        H  0.50736443  0.67211093  0.81088286     0.05300
H732        H  0.53879570  0.64572132  0.81062701     0.08500
H733        H  0.53918570  0.67864936  0.83633366     0.08500
H734        H  0.44949213  0.57074758  0.91100231     0.08500
H735        H  0.44947835  0.60368245  0.93665190     0.08500
H736        H  0.48107368  0.57744119  0.93673198     0.05200
C737        C  0.64576912  0.51995501  0.14421941    -0.20600
C738        C  0.62496622  0.53522749  0.12490688    -0.07100
C739        C  0.60511850  0.51791639  0.10582089     0.13700
C740        C  0.60688171  0.48570094  0.10632395    -0.20600
C741        C  0.62772229  0.47043585  0.12563786    -0.07100
C742        C  0.64757317  0.48776754  0.14468645     0.13700
C743        C  0.67153317  0.47256486  0.16457420    -0.24000
H744        H  0.66109299  0.53334763  0.15862688     0.15000
H745        H  0.59156137  0.47229956  0.09192093     0.15000
C746        C  0.58129021  0.53317659  0.08581254    -0.23900
H747        H  0.68627296  0.48971411  0.17646395     0.05300
H748        H  0.68662569  0.45789095  0.15017977     0.08500
H749        H  0.66031551  0.45829809  0.18248314     0.08500
H750        H  0.59264582  0.54743849  0.06798366     0.08500
H751        H  0.56614557  0.54789160  0.10011764     0.08500
H752        H  0.56659394  0.51605356  0.07383186     0.05200
C753        C  0.48167907  0.63566497  0.14562839    -0.20600
C754        C  0.46734805  0.62730957  0.11789390    -0.07100
C755        C  0.48601952  0.61856919  0.09265133     0.13700
C756        C  0.51814487  0.61903878  0.09585114    -0.20600
C757        C  0.53244063  0.62759329  0.12356298    -0.07100
C758        C  0.51373077  0.63572095  0.14897118     0.13700
C759        C  0.52689030  0.64484920  0.17974555    -0.24000
H760        H  0.46766471  0.64233145  0.16507981     0.15000
H761        H  0.53223565  0.61230152  0.07647319     0.15000
C762        C  0.47268635  0.60804180  0.06240924    -0.23900
H763        H  0.50870838  0.65165176  0.19630046     0.05300
H764        H  0.54256731  0.66475158  0.17701720     0.08500
H765        H  0.53942944  0.62518730  0.19004447     0.08500
H766        H  0.45981286  0.62710532  0.05141319     0.08500
H767        H  0.45725639  0.58805744  0.06619020     0.08500
H768        H  0.49082430  0.60075173  0.04601364     0.05200
C769        C  0.48472083  0.38625533  0.10145462    -0.20600
C770        C  0.46982174  0.37789558  0.12891601    -0.07100
C771        C  0.48795810  0.36997103  0.15478110     0.13700
C772        C  0.52016591  0.37031425  0.15232053    -0.20600
C773        C  0.53507033  0.37851190  0.12480427    -0.07100
C774        C  0.51692566  0.38678488  0.09903334     0.13700
C775        C  0.53080409  0.39683571  0.06889210    -0.24000
H776        H  0.47115240  0.39265925  0.08175769     0.15000
H777        H  0.53369746  0.36394708  0.17202344     0.15000
C778        C  0.47406719  0.36056507  0.18511166    -0.23900
H779        H  0.51299628  0.40379774  0.05199010     0.05300
H780        H  0.54390616  0.37760504  0.05848088     0.08500
H781        H  0.54613570  0.41693036  0.07264322     0.08500
H782        H  0.45870005  0.34045885  0.18178968     0.08500
H783        H  0.46097780  0.38002682  0.19509687     0.08500
H784        H  0.49185229  0.35392339  0.20216117     0.05200
C785        C  0.38487366  0.48434076  0.09812390    -0.20600
C786        C  0.37648288  0.47015589  0.12591620    -0.07100
C787        C  0.36781951  0.48898201  0.15108654     0.13700
C788        C  0.36726183  0.52102922  0.14740751    -0.20600
C789        C  0.37539300  0.53519025  0.11951339    -0.07100
C790        C  0.38463721  0.51639347  0.09455713     0.13700
C791        C  0.39499844  0.52951971  0.06418735    -0.24000
H792        H  0.39196336  0.47022850  0.07890649     0.15000
H793        H  0.36027883  0.53515310  0.16664738     0.15000
C794        C  0.35876805  0.47595832  0.18192447    -0.23900
H795        H  0.40276355  0.51133843  0.04805990     0.05300
H796        H  0.41463146  0.54543588  0.06785027     0.08500
H797        H  0.37568988  0.54178804  0.05292313     0.08500
H798        H  0.37855160  0.46369494  0.19234586     0.08500
H799        H  0.33902433  0.46004866  0.17925329     0.08500
H800        H  0.35173781  0.49419083  0.19832861     0.05200
C801        C  0.76697872  0.64294277  0.14986517    -0.20600
C802        C  0.78252309  0.62492480  0.12819886    -0.07100
C803        C  0.76556323  0.60793767  0.10630873     0.13700
C804        C  0.73334133  0.60923025  0.10684264    -0.20600
C805        C  0.71767608  0.62679422  0.12890328    -0.07100
C806        C  0.73475721  0.64393651  0.15071304     0.13700
C807        C  0.71936577  0.66414124  0.17426537    -0.24000
H808        H  0.78019020  0.65613185  0.16640038     0.15000
H809        H  0.72027098  0.59625939  0.09003676     0.15000
C810        C  0.78130400  0.58938294  0.08166276    -0.23900
H811        H  0.73638136  0.67732809  0.18803173     0.05300
H812        H  0.70582191  0.64989486  0.19050150     0.08500
H813        H  0.70403865  0.68088978  0.16261576     0.08500
H814        H  0.79480152  0.57051764  0.09222212     0.08500
H815        H  0.79685688  0.60443967  0.06811823     0.08500
H816        H  0.76450716  0.57882844  0.06556584     0.05200
C817        C  0.76176966  0.64623889  0.86018154    -0.20600
C818        C  0.77667916  0.62395018  0.87806924    -0.07100
C819        C  0.75894676  0.60357428  0.89621448     0.13700
C820        C  0.72676225  0.60630289  0.89614820    -0.20600
C821        C  0.71191094  0.62826790  0.87780745    -0.07100
C822        C  0.72963739  0.64844043  0.85950091     0.13700
C823        C  0.71493122  0.67294377  0.83990465    -0.24000
H824        H  0.77539722  0.66188488  0.84636820     0.15000
H825        H  0.71304395  0.59079849  0.91002604     0.15000
C826        C  0.77371763  0.57951008  0.91627526    -0.23900
H827        H  0.73237603  0.68777063  0.82858821     0.05300
H828        H  0.70015221  0.68785520  0.85439004     0.08500
H829        H  0.70088789  0.66223971  0.82150718     0.08500
H830        H  0.79008121  0.59056034  0.93249230     0.08500
H831        H  0.78609614  0.56256446  0.90183428     0.08500
H832        H  0.75640929  0.56670456  0.93000594     0.05200
C833        C  0.85933864  0.64914571  0.98609280    -0.20600
C834        C  0.87036895  0.62311464  0.97052097    -0.07100
C835        C  0.88243532  0.59834256  0.98790899     0.13700
C836        C  0.88328181  0.60054151  0.02006226    -0.20600
C837        C  0.87245747  0.62666764  0.03562552    -0.07100
C838        C  0.86005931  0.65127951  0.01826145     0.13700
C839        C  0.84674129  0.67958254  0.03316289    -0.24000
H840        H  0.84979497  0.66804430  0.97295560     0.15000
H841        H  0.89279992  0.58162247  0.03318605     0.15000
C842        C  0.89524039  0.56976095  0.97307019    -0.23900
H843        H  0.83654353  0.69548189  0.01599586     0.05300
H844        H  0.86504144  0.69245506  0.04543947     0.08500
H845        H  0.82826080  0.67290638  0.04945329     0.08500
H846        H  0.91390176  0.57603603  0.95682673     0.08500
H847        H  0.87671408  0.55725165  0.96075470     0.08500
H848        H  0.90505919  0.55366273  0.99027236     0.05200
C849        C  0.22688870  0.60626597  0.84580141    -0.20600
C850        C  0.21201686  0.62325462  0.86875368    -0.07100
C851        C  0.22956686  0.63885799  0.89112207     0.13700
C852        C  0.26170485  0.63726578  0.88984234    -0.20600
C853        C  0.27680641  0.62064870  0.86664449    -0.07100
C854        C  0.25910551  0.60492984  0.84425343     0.13700
C855        C  0.27379098  0.58582365  0.81941212    -0.24000
H856        H  0.21315429  0.59408860  0.82890904     0.15000
H857        H  0.27516841  0.64923642  0.90708804     0.15000
C858        C  0.21450033  0.65621566  0.91703278    -0.23900
H859        H  0.25635515  0.57386479  0.80506811     0.05300
H860        H  0.28873800  0.56808767  0.82998473     0.08500
H861        H  0.28757643  0.60067508  0.80393243     0.08500
H862        H  0.19915663  0.64057379  0.93013693     0.08500
H863        H  0.20087006  0.67564316  0.90773578     0.08500
H864        H  0.23170586  0.66585451  0.93327191     0.05200
C865        C  0.97698139  0.59800575  0.86811370    -0.20600
C866        C  0.96196338  0.62496979  0.87753150    -0.07100
C867        C  0.97998502  0.65068635  0.88643599     0.13700
C868        C  0.01215953  0.64879794  0.88489166    -0.20600
C869        C  0.02714491  0.62192987  0.87512959    -0.07100
C870        C  0.00912649  0.59597425  0.86694823     0.13700
C871        C  0.02314040  0.56605202  0.85647449    -0.24000
H872        H  0.96343087  0.57821215  0.86133596     0.15000
H873        H  0.02576226  0.66855284  0.89167732     0.15000
C874        C  0.96591295  0.68005878  0.89827827    -0.23900
H875        H  0.00537421  0.54897004  0.84972807     0.05300
H876        H  0.03672207  0.55570118  0.87541205     0.08500
H877        H  0.03803350  0.57002501  0.83619419     0.08500
H878        H  0.95105158  0.67504083  0.91840268     0.08500
H879        H  0.95228322  0.69127139  0.87987199     0.08500
H880        H  0.98367375  0.69682175  0.90579381     0.05200
C881        C  0.23354935  0.65153961  0.13075216    -0.20600
C882        C  0.21752912  0.62716425  0.11687173    -0.07100
C883        C  0.23426193  0.60419462  0.10091595     0.13700
C884        C  0.26647696  0.60576874  0.10024838    -0.20600
C885        C  0.28233861  0.62935032  0.11535588    -0.07100
C886        C  0.26575123  0.65286023  0.13029888     0.13700
C887        C  0.28191588  0.67981215  0.14495253    -0.24000
H888        H  0.22080754  0.66944737  0.14249939     0.15000
H889        H  0.27946513  0.58807212  0.08842891     0.15000
C890        C  0.21850063  0.57839512  0.08390237    -0.23900
H891        H  0.26536225  0.69677828  0.15438126     0.05300
H892        H  0.29630095  0.69168145  0.12753969     0.08500
H893        H  0.29668494  0.67187236  0.16415955     0.08500
H894        H  0.20183267  0.58795400  0.06709840     0.08500
H895        H  0.20641410  0.56310296  0.10033303     0.08500
H896        H  0.23516865  0.56399996  0.07102295     0.05200
C897        C  0.98266002  0.60353258  0.11178482    -0.20600
C898        C  0.96750764  0.62707839  0.12778430    -0.07100
C899        C  0.98522152  0.64972541  0.14314173     0.13700
C900        C  0.01744968  0.64833679  0.14168528    -0.20600
C901        C  0.03255523  0.62482572  0.12559441    -0.07100
C902        C  0.01485460  0.60213881  0.11034687     0.13700
C903        C  0.02954411  0.57707449  0.09147882    -0.24000
H904        H  0.96916244  0.58628582  0.09985597     0.15000
H905        H  0.03100697  0.66562169  0.15349036     0.15000
C906        C  0.97054817  0.67484171  0.16194628    -0.23900
H907        H  0.01212011  0.56268545  0.07955266     0.05300
H908        H  0.04316385  0.56163387  0.10650248     0.08500
H909        H  0.04465687  0.58740009  0.07369699     0.08500
H910        H  0.95527320  0.66459563  0.17964542     0.08500
H911        H  0.95710384  0.69036137  0.14684644     0.08500
H912        H  0.98799060  0.68912870  0.17397190     0.05200
C913        C  0.12828400  0.65016010  0.01372638    -0.20600
C914        C  0.12277539  0.62256203  0.02959758    -0.07100
C915        C  0.11753891  0.59535966  0.01235303     0.13700
C916        C  0.11761269  0.59679614  0.98011903    -0.20600
C917        C  0.12281608  0.62448011  0.96427591    -0.07100
C918        C  0.12847311  0.65159154  0.98154486     0.13700
C919        C  0.13518934  0.68226204  0.96676042    -0.24000
H920        H  0.13268781  0.67099691  0.02659204     0.15000
H921        H  0.11329131  0.57597341  0.96719937     0.15000
C922        C  0.11148492  0.56463183  0.02725400    -0.23900
H923        H  0.14038604  0.70033595  0.98403241     0.05300
H924        H  0.11489444  0.69018917  0.95350280     0.08500
H925        H  0.15552629  0.68031952  0.95149305     0.08500
H926        H  0.09093974  0.56612084  0.04229372     0.08500
H927        H  0.13184080  0.55739003  0.04081690     0.08500
H928        H  0.10699040  0.54633047  0.01002586     0.05200
C929        C  0.61009746  0.23619121  0.10322328    -0.20600
C930        C  0.62822948  0.22058750  0.12479602    -0.07100
C931        C  0.64569217  0.23759418  0.14632141     0.13700
C932        C  0.64477675  0.26982858  0.14547656    -0.20600
C933        C  0.62724652  0.28551537  0.12339348    -0.07100
C934        C  0.60956074  0.26843087  0.10201792     0.13700
C935        C  0.58932066  0.28388434  0.07851181    -0.24000
H936        H  0.59656744  0.22301474  0.08693424     0.15000
H937        H  0.65813535  0.28290068  0.16198239     0.15000
C938        C  0.66449270  0.22193505  0.17086170    -0.23900
H939        H  0.57570621  0.26693576  0.06508799     0.05300
H940        H  0.60358969  0.29703086  0.06197267     0.08500
H941        H  0.57295204  0.29959815  0.09016328     0.08500
H942        H  0.68322452  0.20835734  0.16019562     0.08500
H943        H  0.64955332  0.20650799  0.18466886     0.08500
H944        H  0.67528199  0.23877919  0.18674471     0.05200
C945        C  0.61033983  0.27083413  0.85327755    -0.20600
C946        C  0.62886577  0.28609555  0.87487670    -0.07100
C947        C  0.64710428  0.26867904  0.89540776     0.13700
C948        C  0.64614950  0.23649597  0.89391705    -0.20600
C949        C  0.62701659  0.22126557  0.87291408    -0.07100
C950        C  0.60893580  0.23861183  0.85222004     0.13700
C951        C  0.58891584  0.22336199  0.82836942    -0.24000
H952        H  0.59652506  0.28421250  0.83746384     0.15000
H953        H  0.66010426  0.22307800  0.90958238     0.15000
C954        C  0.66836135  0.28373769  0.91828878    -0.23900
H955        H  0.57768485  0.24044532  0.81309702     0.05300
H956        H  0.57047864  0.20985839  0.83968799     0.08500
H957        H  0.60309995  0.20794967  0.81383131     0.08500
H958        H  0.65489995  0.29690091  0.93544216     0.08500
H959        H  0.68445444  0.29935569  0.90611829     0.08500
H960        H  0.68226146  0.26656648  0.93106520     0.05200
C961        C  0.65179451  0.13893299  0.98189246    -0.20600
C962        C  0.62534020  0.12851785  0.96648288    -0.07100
C963        C  0.60029321  0.11737050  0.98409436     0.13700
C964        C  0.60239017  0.11736101  0.01631173    -0.20600
C965        C  0.62880540  0.12793508  0.03172673    -0.07100
C966        C  0.65397118  0.13877392  0.01407269     0.13700
C967        C  0.68306248  0.15088548  0.02860435    -0.24000
H968        H  0.67104102  0.14753069  0.96861912     0.15000
H969        H  0.58316216  0.10873541  0.02958929     0.15000
C970        C  0.57152825  0.10465992  0.96943266    -0.23900
H971        H  0.69953413  0.15965428  0.01118316     0.05300
H972        H  0.69483287  0.13223012  0.04137857     0.08500
H973        H  0.67755481  0.17018079  0.04436552     0.08500
H974        H  0.57753219  0.08553045  0.95365809     0.08500
H975        H  0.55940556  0.12305814  0.95660803     0.08500
H976        H  0.55520192  0.09550600  0.98679239     0.05200
C977        C  0.60023643  0.77047890  0.89757266    -0.20600
C978        C  0.62008135  0.78600985  0.87742182    -0.07100
C979        C  0.63917862  0.76885374  0.85751108     0.13700
C980        C  0.63799886  0.73665283  0.85837364    -0.20600
C981        C  0.61868345  0.72106946  0.87896252    -0.07100
C982        C  0.59950327  0.73820608  0.89884995     0.13700
C983        C  0.57752227  0.72272572  0.92070747    -0.24000
H984        H  0.58549466  0.78369807  0.91265585     0.15000
H985        H  0.65251213  0.72349553  0.84301236     0.15000
C986        C  0.66008980  0.78425060  0.83454676    -0.23900
H987        H  0.56315220  0.73967432  0.93323479     0.05300
H988        H  0.59048963  0.70932924  0.93808948     0.08500
H989        H  0.56190589  0.70718121  0.90777093     0.08500
H990        H  0.67814100  0.79759843  0.84666606     0.08500
H991        H  0.64651838  0.79980104  0.81953460     0.08500
H992        H  0.67188382  0.76725865  0.81961141     0.05200
C993        C  0.64780553  0.98604271  0.88628177    -0.20600
C994        C  0.62156029  0.97116836  0.87465419    -0.07100
C995        C  0.59759151  0.98916189  0.86196137     0.13700
C996        C  0.60031580  0.02130672  0.86197209    -0.20600
C997        C  0.62638756  0.03620240  0.87398777    -0.07100
C998        C  0.65064363  0.01816048  0.88610037     0.13700
C999        C  0.67933914  0.03224411  0.89961473    -0.24000
H1000       H  0.66626432  0.97240408  0.89593734     0.15000
H1001       H  0.58189313  0.03493667  0.85223978     0.15000
C1002       C  0.56943426  0.97493719  0.84752035    -0.23900
H1003       H  0.69498495  0.01457458  0.90932040     0.05300
H1004       H  0.67313241  0.04825036  0.91849185     0.08500
H1005       H  0.69231561  0.04467754  0.88152560     0.08500
H1006       H  0.55580230  0.96259442  0.86518903     0.08500
H1007       H  0.57638146  0.95879231  0.82902768     0.08500
H1008       H  0.55416352  0.99252370  0.83709960     0.05200
C1009       C  0.60931495  0.76998871  0.14696271    -0.20600
C1010       C  0.62789965  0.78531775  0.12553326    -0.07100
C1011       C  0.64535409  0.76790732  0.10433326     0.13700
C1012       C  0.64442496  0.73568526  0.10586081    -0.20600
C1013       C  0.62615398  0.72029477  0.12758547    -0.07100
C1014       C  0.60814657  0.73777151  0.14827410     0.13700
C1015       C  0.58658920  0.72280012  0.17086376    -0.24000
H1016       H  0.59565229  0.78338539  0.16289745     0.15000
H1017       H  0.65793427  0.72244495  0.08966467     0.15000
C1018       C  0.66405719  0.78220402  0.07888325    -0.23900
H1019       H  0.57300005  0.74002855  0.18387665     0.05300
H1020       H  0.59973077  0.70905462  0.18783535     0.08500
H1021       H  0.57021238  0.70781786  0.15828686     0.08500
H1022       H  0.68870863  0.77648876  0.08215807     0.08500
H1023       H  0.66173004  0.80747564  0.07747724     0.08500
H1024       H  0.65633176  0.77279597  0.05644033     0.05200
C1025       C  0.64838439  0.98579403  0.11032409    -0.20600
C1026       C  0.62587095  0.97045721  0.12761010    -0.07100
C1027       C  0.60396378  0.98796027  0.14412095     0.13700
C1028       C  0.60507388  0.02020330  0.14260041    -0.20600
C1029       C  0.62761000  0.03551193  0.12530213    -0.07100
C1030       C  0.64952911  0.01799188  0.10883075     0.13700
C1031       C  0.67354924  0.03288695  0.08874026    -0.24000
H1032       H  0.66502988  0.97241865  0.09747940     0.15000
H1033       H  0.58845598  0.03361713  0.15543291     0.15000
C1034       C  0.58004864  0.97299126  0.16425268    -0.23900
H1035       H  0.68720301  0.01558392  0.07588907     0.05300
H1036       H  0.68986177  0.04634154  0.10301290     0.08500
H1037       H  0.66231352  0.04818311  0.07168291     0.08500
H1038       H  0.59139753  0.95782773  0.18135616     0.08500
H1039       H  0.56384452  0.95936301  0.15001795     0.08500
H1040       H  0.56629172  0.99026246  0.17703265     0.05200
C1041       C  0.60148452  0.86367422  0.01938726    -0.20600
C1042       C  0.62534642  0.87943355  0.03439113    -0.07100
C1043       C  0.64740110  0.89548896  0.01658806     0.13700
C1044       C  0.64516567  0.89490433  0.98439755    -0.20600
C1045       C  0.62137697  0.87902140  0.96940166    -0.07100
C1046       C  0.59921346  0.86314227  0.98721344     0.13700
C1047       C  0.57373272  0.84464048  0.97264111    -0.24000
H1048       H  0.58466622  0.85126120  0.03297181     0.15000
H1049       H  0.66200025  0.90727068  0.97078671     0.15000
C1050       C  0.67275124  0.91415684  0.03117925    -0.23900
H1051       H  0.55987824  0.83214120  0.99006961     0.05300
H1052       H  0.58359726  0.82735540  0.95668939     0.08500
H1053       H  0.55786780  0.86003614  0.95996158     0.08500
H1054       H  0.68878566  0.89886040  0.04376660     0.08500
H1055       H  0.66277188  0.93129957  0.04721765     0.08500
H1056       H  0.68644964  0.92684007  0.01376074     0.05200
C1057       C  0.26947284  0.38771312  0.89494414    -0.20600
C1058       C  0.28531177  0.36686577  0.87618722    -0.07100
C1059       C  0.26853841  0.34630901  0.85738202     0.13700
C1060       C  0.23629625  0.34758791  0.85740428    -0.20600
C1061       C  0.22046206  0.36924252  0.87528659    -0.07100
C1062       C  0.23725910  0.38937261  0.89456982     0.13700
C1063       C  0.22144000  0.41200824  0.91547251    -0.24000
H1064       H  0.28244178  0.40321630  0.90954091     0.15000
H1065       H  0.22335323  0.33190160  0.84298541     0.15000
C1066       C  0.28440442  0.32242583  0.83795420    -0.23900
H1067       H  0.23811175  0.42455418  0.93021551     0.05300
H1068       H  0.20510347  0.39971007  0.93076101     0.08500
H1069       H  0.20886743  0.42935106  0.90167013     0.08500
H1070       H  0.29935756  0.30787333  0.85265248     0.08500
H1071       H  0.29850706  0.33371778  0.81997013     0.08500
H1072       H  0.26765135  0.30715813  0.82616217     0.05200
C1073       C  0.23444230  0.39441440  0.14396887    -0.20600
C1074       C  0.21985539  0.37497083  0.12277632    -0.07100
C1075       C  0.23777878  0.35626718  0.10323446     0.13700
C1076       C  0.26994116  0.35745106  0.10554639    -0.20600
C1077       C  0.28454539  0.37657891  0.12709919    -0.07100
C1078       C  0.26654686  0.39538010  0.14650904     0.13700
C1079       C  0.28091888  0.41748840  0.16898041    -0.24000
H1080       H  0.22057350  0.40881479  0.15878775     0.15000
H1081       H  0.28379378  0.34323282  0.09054307     0.15000
C1082       C  0.22326860  0.33592114  0.07920610    -0.23900
H1083       H  0.26335873  0.43155009  0.18100300     0.05300
H1084       H  0.29648305  0.43338477  0.15649559     0.08500
H1085       H  0.29399893  0.40474084  0.18675984     0.08500
H1086       H  0.20853482  0.34991326  0.06376077     0.08500
H1087       H  0.20916535  0.31783524  0.09036990     0.08500
H1088       H  0.24083895  0.32424168  0.06487080     0.05200
C1089       C  0.10935884  0.35411302  0.01471334    -0.20600
C1090       C  0.12587861  0.37754380  0.02961315    -0.07100
C1091       C  0.14184912  0.39953703  0.01168586     0.13700
C1092       C  0.14148293  0.39691248  0.97953178    -0.20600
C1093       C  0.12559530  0.37301096  0.96469517    -0.07100
C1094       C  0.10876326  0.35167011  0.98256722     0.13700
C1095       C  0.08926350  0.32692025  0.96805576    -0.24000
H1096       H  0.09661007  0.33760492  0.02838062     0.15000
H1097       H  0.15415934  0.41345426  0.96583518     0.15000
C1098       C  0.16018416  0.42521246  0.02609054    -0.23900
H1099       H  0.07600835  0.31381848  0.98550520     0.05300
H1100       H  0.10402523  0.31027249  0.95564237     0.08500
H1101       H  0.07256973  0.33741348  0.95185622     0.08500
H1102       H  0.17764925  0.41556588  0.04201822     0.08500
H1103       H  0.14465729  0.44092528  0.03877879     0.08500
H1104       H  0.17245620  0.43914193  0.00856094     0.05200
C1105       C  0.76987932  0.39947443  0.86178259    -0.20600
C1106       C  0.78503368  0.37701126  0.87933098    -0.07100
C1107       C  0.76740767  0.35642078  0.89737527     0.13700
C1108       C  0.73517589  0.35826607  0.89655238    -0.20600
C1109       C  0.72010827  0.37982336  0.87791986    -0.07100
C1110       C  0.73766037  0.40109350  0.86077425     0.13700
C1111       C  0.72257561  0.42620101  0.84228266    -0.24000
H1112       H  0.78334391  0.41564610  0.84842981     0.15000
H1113       H  0.72160736  0.34247268  0.91021877     0.15000
C1114       C  0.78228112  0.33313590  0.91828564    -0.23900
H1115       H  0.73980099  0.44182410  0.83172643     0.05300
H1116       H  0.70751310  0.44016740  0.85739379     0.08500
H1117       H  0.70866952  0.41608999  0.82342856     0.08500
H1118       H  0.79815899  0.34490306  0.93447021     0.08500
H1119       H  0.79517536  0.31599115  0.90454069     0.08500
H1120       H  0.76498225  0.32040029  0.93209183     0.05200
C1121       C  0.98487293  0.34935479  0.86043029    -0.20600
C1122       C  0.97037956  0.37440755  0.87471209    -0.07100
C1123       C  0.98877532  0.39791053  0.88781127     0.13700
C1124       C  0.02088952  0.39579653  0.88597773    -0.20600
C1125       C  0.03538495  0.37076137  0.87174755    -0.07100
C1126       C  0.01704250  0.34717726  0.85872792     0.13700
C1127       C  0.03093537  0.32006501  0.84224110    -0.24000
H1128       H  0.97089175  0.33141009  0.85023123     0.15000
H1129       H  0.03485141  0.41370182  0.89627944     0.15000
C1130       C  0.97503635  0.42473512  0.90485838    -0.23900
H1131       H  0.01305325  0.30509053  0.83180467     0.05300
H1132       H  0.04419529  0.30573295  0.85862219     0.08500
H1133       H  0.04620944  0.32823465  0.82348916     0.08500
H1134       H  0.96013774  0.41613929  0.92365713     0.08500
H1135       H  0.96149317  0.43929655  0.88890960     0.08500
H1136       H  0.99297735  0.43961239  0.91533122     0.05200
C1137       C  0.76970349  0.35766822  0.10669609    -0.20600
C1138       C  0.78524895  0.37587580  0.12827918    -0.07100
C1139       C  0.76825156  0.39418501  0.14900446     0.13700
C1140       C  0.73603521  0.39408967  0.14731257    -0.20600
C1141       C  0.72044265  0.37659320  0.12509402    -0.07100
C1142       C  0.73750879  0.35799518  0.10460083     0.13700
C1143       C  0.72203282  0.33775274  0.08108818    -0.24000
H1144       H  0.78289134  0.34352966  0.09101959     0.15000
H1145       H  0.72293174  0.40803553  0.16321854     0.15000
C1146       C  0.78385904  0.41308819  0.17353796    -0.23900
H1147       H  0.73889604  0.32348286  0.06833112     0.05300
H1148       H  0.70967806  0.35206843  0.06400079     0.08500
H1149       H  0.70556826  0.32201141  0.09263910     0.08500
H1150       H  0.79821430  0.43125382  0.16284412     0.08500
H1151       H  0.79854321  0.39805885  0.18802629     0.08500
H1152       H  0.76694415  0.42461232  0.18876373     0.05200
C1153       C  0.98501332  0.40008868  0.11422169    -0.20600
C1154       C  0.97015937  0.37457251  0.12735159    -0.07100
C1155       C  0.98817406  0.35055191  0.13989445     0.13700
C1156       C  0.02030656  0.35250234  0.13831391    -0.20600
C1157       C  0.03513513  0.37779983  0.12479547    -0.07100
C1158       C  0.01714990  0.40211743  0.11278498     0.13700
C1159       C  0.03131506  0.42992712  0.09764215    -0.24000
H1160       H  0.97133759  0.41854973  0.10461056     0.15000
H1161       H  0.03401400  0.33410071  0.14799794     0.15000
C1162       C  0.97403434  0.32314899  0.15575057    -0.23900
H1163       H  0.01359991  0.44562052  0.08809233     0.05300
H1164       H  0.04637644  0.42262286  0.07838985     0.08500
H1165       H  0.04481990  0.44325883  0.11469614     0.08500
H1166       H  0.96068941  0.30924635  0.13903032     0.08500
H1167       H  0.95883597  0.33097401  0.17468540     0.08500
H1168       H  0.99176216  0.30783934  0.16588083     0.05200
C1169       C  0.88720644  0.40062592  0.01989733    -0.20600
C1170       C  0.87772153  0.37379377  0.03516722    -0.07100
C1171       C  0.86885532  0.34790466  0.01739579     0.13700
C1172       C  0.86970180  0.34977205  0.98521622    -0.20600
C1173       C  0.87905235  0.37665813  0.96992126    -0.07100
C1174       C  0.88802126  0.40250225  0.98770832     0.13700
C1175       C  0.89902612  0.43209811  0.97338554    -0.24000
H1176       H  0.89428701  0.42041104  0.03327966     0.15000
H1177       H  0.86260425  0.32997208  0.97186753     0.15000
C1178       C  0.85777653  0.31831706  0.03173613    -0.23900
H1179       H  0.90651083  0.44905719  0.99095145     0.05300
H1180       H  0.88016206  0.44288103  0.96003311     0.08500
H1181       H  0.91896733  0.42750795  0.95823999     0.08500
H1182       H  0.83774804  0.32293020  0.04685797     0.08500
H1183       H  0.87660394  0.30753394  0.04512477     0.08500
H1184       H  0.85035429  0.30133638  0.01416217     0.05200
C1185       C  0.35551506  0.73532867  0.13591228    -0.20600
C1186       C  0.37424317  0.72036251  0.11435920    -0.07100
C1187       C  0.39277903  0.73803316  0.09432399     0.13700
C1188       C  0.39230830  0.77021147  0.09670387    -0.20600
C1189       C  0.37334723  0.78511798  0.11809858    -0.07100
C1190       C  0.35454237  0.76746062  0.13783502     0.13700
C1191       C  0.33427629  0.78222859  0.16172296    -0.24000
H1192       H  0.34146175  0.72173626  0.15136884     0.15000
H1193       H  0.40668476  0.78387703  0.08160941     0.15000
C1194       C  0.41389355  0.72321095  0.07123088    -0.23900
H1195       H  0.32252142  0.76482778  0.17625152     0.05300
H1196       H  0.31621183  0.79619664  0.15040816     0.08500
H1197       H  0.34833233  0.79710209  0.17701685     0.08500
H1198       H  0.40024052  0.71026282  0.05399949     0.08500
H1199       H  0.42996835  0.70735543  0.08312186     0.08500
H1200       H  0.42780235  0.74053190  0.05863318     0.05200
C1201       C  0.34580274  0.72826115  0.88557800    -0.20600
C1202       C  0.36841384  0.71283043  0.86861820    -0.07100
C1203       C  0.39068714  0.72996764  0.85235557     0.13700
C1204       C  0.38972295  0.76218335  0.85341156    -0.20600
C1205       C  0.36681609  0.77777290  0.86995525    -0.07100
C1206       C  0.34448129  0.76051908  0.88624536     0.13700
C1207       C  0.31980612  0.77575852  0.90516648    -0.24000
H1208       H  0.32889821  0.71493966  0.89814395     0.15000
H1209       H  0.40690837  0.77531470  0.84103742     0.15000
C1210       C  0.41617771  0.71443211  0.83479773    -0.23900
H1211       H  0.30556060  0.75867413  0.91770956     0.05300
H1212       H  0.30417829  0.78905538  0.89004485     0.08500
H1213       H  0.33046603  0.79129645  0.92240993     0.08500
H1214       H  0.40646331  0.70066568  0.81564805     0.08500
H1215       H  0.42937338  0.69917896  0.85042880     0.08500
H1216       H  0.43244271  0.73135355  0.82472769     0.05200
C1217       C  0.39492276  0.86024287  0.97827812    -0.20600
C1218       C  0.36938479  0.87253622  0.96283208    -0.07100
C1219       C  0.34574783  0.88662657  0.98025518     0.13700
C1220       C  0.34840049  0.88787996  0.01240513    -0.20600
C1221       C  0.37402984  0.87568850  0.02780388    -0.07100
C1222       C  0.39759841  0.86152123  0.01037212     0.13700
C1223       C  0.42528511  0.84680265  0.02517232    -0.24000
H1224       H  0.41297996  0.84928476  0.96510943     0.15000
H1225       H  0.33035330  0.89877741  0.02563540     0.15000
C1226       C  0.31804943  0.90122576  0.96538873    -0.23900
H1227       H  0.44023153  0.83524155  0.00803111     0.05300
H1228       H  0.41776220  0.82916568  0.04201594     0.08500
H1229       H  0.43948660  0.86452730  0.03680308     0.08500
H1230       H  0.30408859  0.88345687  0.95352887     0.08500
H1231       H  0.32554094  0.91903277  0.94870380     0.08500
H1232       H  0.30291674  0.91253934  0.98253056     0.05200
C1233       C  0.39639443  0.22740366  0.85866813    -0.20600
C1234       C  0.37733811  0.21221300  0.87974052    -0.07100
C1235       C  0.35992258  0.22952796  0.90094757     0.13700
C1236       C  0.36153896  0.26173231  0.90005790    -0.20600
C1237       C  0.37980421  0.27703589  0.87826892    -0.07100
C1238       C  0.39772290  0.25959955  0.85746867     0.13700
C1239       C  0.41899656  0.27461076  0.83459110    -0.24000
H1240       H  0.41001804  0.21394089  0.84274932     0.15000
H1241       H  0.34805361  0.27507355  0.91618455     0.15000
C1242       C  0.34040618  0.21419363  0.92514486    -0.23900
H1243       H  0.43271527  0.25737874  0.82171919     0.05300
H1244       H  0.43527285  0.29011578  0.84673593     0.08500
H1245       H  0.40554101  0.28789249  0.81750300     0.08500
H1246       H  0.35480378  0.19852953  0.93923592     0.08500
H1247       H  0.32161699  0.20089254  0.91413399     0.08500
H1248       H  0.32967468  0.23122953  0.94081378     0.05200
C1249       C  0.35378959  0.01358343  0.85813962    -0.20600
C1250       C  0.37572951  0.02747890  0.87733473    -0.07100
C1251       C  0.39652187  0.00877616  0.89389365     0.13700
C1252       C  0.39478298  0.97669619  0.89075938    -0.20600
C1253       C  0.37272955  0.96281413  0.87166489    -0.07100
C1254       C  0.35217792  0.98154977  0.85484360     0.13700
C1255       C  0.32926952  0.96814744  0.83250439    -0.24000
H1256       H  0.33803626  0.02792707  0.84529622     0.15000
H1257       H  0.41037115  0.96231050  0.90377791     0.15000
C1258       C  0.41972554  0.02228063  0.91584296    -0.23900
H1259       H  0.31673716  0.98634092  0.81973033     0.05300
H1260       H  0.31190091  0.95421693  0.84493908     0.08500
H1261       H  0.34137210  0.95356651  0.81543523     0.08500
H1262       H  0.40781687  0.03669344  0.93318781     0.08500
H1263       H  0.43670382  0.03642920  0.90311631     0.08500
H1264       H  0.43266996  0.00414848  0.92828416     0.05200
C1265       C  0.39587752  0.23560503  0.14594476    -0.20600
C1266       C  0.37145605  0.22048283  0.13108285    -0.07100
C1267       C  0.34865097  0.23818949  0.11596427     0.13700
C1268       C  0.35122492  0.27034726  0.11580979    -0.20600
C1269       C  0.37548603  0.28522829  0.13089781    -0.07100
C1270       C  0.39803344  0.26775707  0.14623750     0.13700
C1271       C  0.42490298  0.28290097  0.16204978    -0.24000
H1272       H  0.41335975  0.22218671  0.15752452     0.15000
H1273       H  0.33402426  0.28404565  0.10411126     0.15000
C1274       C  0.32208339  0.22359375  0.09913378    -0.23900
H1275       H  0.44103519  0.26574249  0.17186410     0.05300
H1276       H  0.41660122  0.29758024  0.18115878     0.08500
H1277       H  0.43780602  0.29723496  0.14532497     0.08500
H1278       H  0.30714768  0.21103887  0.11554762     0.08500
H1279       H  0.33090762  0.20754854  0.08140261     0.08500
H1280       H  0.30756007  0.24097778  0.08738458     0.05200
C1281       C  0.40062960  0.02064330  0.11867198    -0.20600
C1282       C  0.37314090  0.03514322  0.12753197    -0.07100
C1283       C  0.34721865  0.01662999  0.13461701     0.13700
C1284       C  0.34966856  0.98458753  0.13263271    -0.20600
C1285       C  0.37701168  0.97008428  0.12345749    -0.07100
C1286       C  0.40296716  0.98853351  0.11643633     0.13700
C1287       C  0.43309239  0.97499477  0.10596111    -0.24000
H1288       H  0.42050875  0.03456296  0.11302282     0.15000
H1289       H  0.32980244  0.97069798  0.13841113     0.15000
C1290       C  0.31678434  0.02994280  0.14455403    -0.23900
H1291       H  0.45021488  0.99305613  0.10020297     0.05300
H1292       H  0.42941998  0.96086619  0.08502316     0.08500
H1293       H  0.44316271  0.96071613  0.12453189     0.08500
H1294       H  0.30669035  0.04373191  0.12562802     0.08500
H1295       H  0.31994976  0.04443810  0.16525505     0.08500
H1296       H  0.29981356  0.01178557  0.15046250     0.05200
C1297       C  0.34877242  0.13184692  0.98662971    -0.20600
C1298       C  0.37620792  0.12272540  0.97220848    -0.07100
C1299       C  0.40215890  0.11598552  0.99076260     0.13700
C1300       C  0.39973357  0.11837954  0.02281903    -0.20600
C1301       C  0.37223175  0.12723999  0.03727357    -0.07100
C1302       C  0.34632785  0.13415684  0.01870996     0.13700
C1303       C  0.31604522  0.14442532  0.03206360    -0.24000
H1304       H  0.32891987  0.13743070  0.97266228     0.15000
H1305       H  0.41962103  0.11285070  0.03675498     0.15000
C1306       C  0.43246071  0.10568441  0.97743645    -0.23900
H1307       H  0.29905952  0.15024412  0.01391182     0.05300
H1308       H  0.31951419  0.16527342  0.04631938     0.08500
H1309       H  0.30588135  0.12573364  0.04613215     0.08500
H1310       H  0.44254640  0.12429906  0.96321439     0.08500
H1311       H  0.42904496  0.08468187  0.96334613     0.08500
H1312       H  0.44950793  0.10007807  0.99560082     0.05200
C1313       C  0.87214288  0.01653360  0.60021733    -0.20600
C1314       C  0.87242369  0.03116272  0.62905435    -0.07100
C1315       C  0.86942306  0.01278464  0.65583410     0.13700
C1316       C  0.86776782  0.98069030  0.65291156    -0.20600
C1317       C  0.86860343  0.96600884  0.62410874    -0.07100
C1318       C  0.87006674  0.98449229  0.59726563     0.13700
C1319       C  0.86957958  0.97117485  0.56523661    -0.24000
H1320       H  0.87373684  0.03025873  0.57952558     0.15000
H1321       H  0.86597831  0.96694466  0.67357438     0.15000
C1322       C  0.86778276  0.02630217  0.68772263    -0.23900
H1323       H  0.87041356  0.98929670  0.54728041     0.05300
H1324       H  0.84802844  0.95795492  0.56163250     0.08500
H1325       H  0.88988978  0.95616051  0.56172263     0.08500
H1326       H  0.84782430  0.04208276  0.68941053     0.08500
H1327       H  0.88941901  0.03876625  0.69308312     0.08500
H1328       H  0.86477148  0.00834120  0.70560726     0.05200
C1329       C  0.02186103  0.11553751  0.65477173    -0.20600
C1330       C  0.03690959  0.12225106  0.62698235    -0.07100
C1331       C  0.01890639  0.12885044  0.60060445     0.13700
C1332       C  0.98677159  0.12831061  0.60286884    -0.20600
C1333       C  0.97168674  0.12154181  0.63061615    -0.07100
C1334       C  0.98968341  0.11513542  0.65706290     0.13700
C1335       C  0.97561327  0.10743801  0.68780256    -0.24000
H1336       H  0.03539805  0.11033260  0.67502778     0.15000
H1337       H  0.97329123  0.13355352  0.58258350     0.15000
C1338       C  0.03292264  0.13709901  0.56997028    -0.23900
H1339       H  0.99334614  0.10196733  0.70534213     0.05300
H1340       H  0.96043479  0.08701542  0.68556961     0.08500
H1341       H  0.96233726  0.12736292  0.69653368     0.08500
H1342       H  0.04611520  0.11732055  0.56079941     0.08500
H1343       H  0.04814416  0.15744987  0.57255286     0.08500
H1344       H  0.01517170  0.14295003  0.55257197     0.05200
C1345       C  0.97788102  0.87961511  0.64979540    -0.20600
C1346       C  0.96242890  0.87451732  0.62184567    -0.07100
C1347       C  0.98017365  0.86967997  0.59490413     0.13700
C1348       C  0.01235694  0.86949660  0.59697194    -0.20600
C1349       C  0.02782256  0.87414047  0.62497653    -0.07100
C1350       C  0.01010773  0.87961471  0.65181458     0.13700
C1351       C  0.02452678  0.88588425  0.68273908    -0.24000
H1352       H  0.96462612  0.88373154  0.67046567     0.15000
H1353       H  0.02557252  0.86542284  0.57626837     0.15000
C1354       C  0.96587039  0.86429526  0.56374785    -0.23900
H1355       H  0.00701022  0.89074993  0.70064265     0.05300
H1356       H  0.03981736  0.90628357  0.68125060     0.08500
H1357       H  0.03774209  0.86550933  0.69050529     0.08500
H1358       H  0.95239985  0.88475358  0.55669920     0.08500
H1359       H  0.95087766  0.84362878  0.56445240     0.08500
H1360       H  0.98345044  0.86032857  0.54568201     0.05200
C1361       C  0.10515055  0.98014296  0.64468528    -0.20600
C1362       C  0.12424490  0.96407704  0.62428713    -0.07100
C1363       C  0.14485011  0.98060983  0.60534384     0.13700
C1364       C  0.14560509  0.01279702  0.60710743    -0.20600
C1365       C  0.12649555  0.02889382  0.62745003    -0.07100
C1366       C  0.10577886  0.01237782  0.64632403     0.13700
C1367       C  0.08339464  0.02856990  0.66720982    -0.24000
H1368       H  0.08926641  0.96737913  0.65904951     0.15000
H1369       H  0.16149218  0.02552191  0.59271469     0.15000
C1370       C  0.16692788  0.96446201  0.58412170    -0.23900
H1371       H  0.06769064  0.01211851  0.67882546     0.05300
H1372       H  0.09600319  0.04135092  0.68534236     0.08500
H1373       H  0.06911434  0.04479518  0.65365404     0.08500
H1374       H  0.15408689  0.95176593  0.56610514     0.08500
H1375       H  0.18131003  0.94820187  0.59750061     0.08500
H1376       H  0.18253601  0.98090497  0.57236494     0.05200
C1377       C  0.64595944  0.89565951  0.26898511    -0.20600
C1378       C  0.62678025  0.87467932  0.28427404    -0.07100
C1379       C  0.60799198  0.85458868  0.26685458     0.13700
C1380       C  0.60893852  0.85608026  0.23464553    -0.20600
C1381       C  0.62854162  0.87666453  0.21940461    -0.07100
C1382       C  0.64730596  0.89674829  0.23678844     0.13700
C1383       C  0.66796758  0.92008962  0.22162254    -0.24000
H1384       H  0.66020503  0.91115413  0.28235263     0.15000
H1385       H  0.59446454  0.84084608  0.22120570     0.15000
C1386       C  0.58615635  0.83226808  0.28192607    -0.23900
H1387       H  0.67967581  0.93497190  0.23876432     0.05300
H1388       H  0.65421822  0.93510123  0.20622298     0.08500
H1389       H  0.68605392  0.90827501  0.20811989     0.08500
H1390       H  0.57030319  0.84481050  0.29748909     0.08500
H1391       H  0.59922634  0.81487467  0.29519475     0.08500
H1392       H  0.57200510  0.81974326  0.26473695     0.05200
C1393       C  0.63705391  0.89726502  0.73482251    -0.20600
C1394       C  0.61725737  0.87695465  0.71943479    -0.07100
C1395       C  0.59729095  0.85793935  0.73671456     0.13700
C1396       C  0.59833967  0.85915030  0.76894795    -0.20600
C1397       C  0.61904159  0.87856828  0.78431695    -0.07100
C1398       C  0.63831965  0.89825161  0.76702946     0.13700
C1399       C  0.65952981  0.92105359  0.78231072    -0.24000
H1400       H  0.65201847  0.91211787  0.72152562     0.15000
H1401       H  0.58321835  0.84448353  0.78227288     0.15000
C1402       C  0.57418582  0.83706955  0.72141124    -0.23900
H1403       H  0.67139609  0.93588055  0.76524691     0.05300
H1404       H  0.67750152  0.90881045  0.79560756     0.08500
H1405       H  0.64616300  0.93618883  0.79789733     0.08500
H1406       H  0.58617260  0.81890926  0.70816458     0.08500
H1407       H  0.55926919  0.85063902  0.70577135     0.08500
H1408       H  0.55915811  0.82544495  0.73846693     0.05200
C1409       C  0.72769591  0.89224296  0.60764355    -0.20600
C1410       C  0.71246877  0.87246513  0.62805962    -0.07100
C1411       C  0.72981320  0.85273270  0.64716843     0.13700
C1412       C  0.76201104  0.85326859  0.64521767    -0.20600
C1413       C  0.77718541  0.87261575  0.62433691    -0.07100
C1414       C  0.75982435  0.89244942  0.60534864     0.13700
C1415       C  0.77496042  0.91463289  0.58341100    -0.24000
H1416       H  0.71429899  0.90740930  0.59310826     0.15000
H1417       H  0.77545899  0.83830190  0.65991351     0.15000
C1418       C  0.71466067  0.83189382  0.67033686    -0.23900
H1419       H  0.75786725  0.92959843  0.57178518     0.05300
H1420       H  0.78748046  0.90183639  0.56528298     0.08500
H1421       H  0.79125092  0.92967772  0.59610187     0.08500
H1422       H  0.70038040  0.81442831  0.65841914     0.08500
H1423       H  0.70000912  0.84564348  0.68605071     0.08500
H1424       H  0.73185406  0.81943320  0.68449909     0.05200
C1425       C  0.63775901  0.89901254  0.51956027    -0.20600
C1426       C  0.62376429  0.87399337  0.53446124    -0.07100
C1427       C  0.61119937  0.84990152  0.51648203     0.13700
C1428       C  0.61294803  0.85163930  0.48435013    -0.20600
C1429       C  0.62669890  0.87677012  0.46941731    -0.07100
C1430       C  0.63946083  0.90077120  0.48739551     0.13700
C1431       C  0.65558585  0.92798984  0.47319048    -0.24000
H1432       H  0.64766757  0.91735095  0.53322367     0.15000
H1433       H  0.60300112  0.83329009  0.47073207     0.15000
C1434       C  0.59500375  0.82268989  0.53063878    -0.23900
H1435       H  0.66573914  0.94336692  0.49087803     0.05300
H1436       H  0.63901446  0.94188927  0.45970145     0.08500
H1437       H  0.67453826  0.91996233  0.45811642     0.08500
H1438       H  0.57590096  0.83072414  0.54551422     0.08500
H1439       H  0.61148809  0.80886696  0.54431506     0.08500
H1440       H  0.58502517  0.80722562  0.51292818     0.05200
C1441       C  0.26297419  0.85302707  0.63961915    -0.20600
C1442       C  0.27784743  0.87332115  0.61944485    -0.07100
C1443       C  0.26021715  0.89131683  0.59897404     0.13700
C1444       C  0.22803639  0.88932087  0.59997767    -0.20600
C1445       C  0.21310795  0.87008908  0.62116450    -0.07100
C1446       C  0.23079876  0.85122184  0.64082507     0.13700
C1447       C  0.21602805  0.82836826  0.66229994    -0.24000
H1448       H  0.27663363  0.83878480  0.65479190     0.15000
H1449       H  0.21444140  0.90319535  0.58442997     0.15000
C1450       C  0.27515134  0.91183655  0.57537865    -0.23900
H1451       H  0.23343218  0.81412392  0.67436200     0.05300
H1452       H  0.20078801  0.81267919  0.64910700     0.08500
H1453       H  0.20244654  0.84052502  0.68010214     0.08500
H1454       H  0.29090644  0.89812184  0.56073880     0.08500
H1455       H  0.28827045  0.93041670  0.58694520     0.08500
H1456       H  0.25787746  0.92286919  0.56016493     0.05200
C1457       C  0.38878898  0.85311738  0.72797282    -0.20600
C1458       C  0.36941753  0.87398399  0.71284941    -0.07100
C1459       C  0.34997537  0.89324004  0.73039817     0.13700
C1460       C  0.35058333  0.89116040  0.76257280    -0.20600
C1461       C  0.37049626  0.87082928  0.77769896    -0.07100
C1462       C  0.38981707  0.85145378  0.76016689     0.13700
C1463       C  0.41078722  0.82830103  0.77515018    -0.24000
H1464       H  0.40351541  0.83822090  0.71445851     0.15000
H1465       H  0.33566528  0.90585552  0.77609101     0.15000
C1466       C  0.32785676  0.91531090  0.71543361    -0.23900
H1467       H  0.42283483  0.81390073  0.75787346     0.05300
H1468       H  0.39720855  0.81279408  0.79021348     0.08500
H1469       H  0.42861704  0.84024092  0.78894789     0.08500
H1470       H  0.31250427  0.90268456  0.69938559     0.08500
H1471       H  0.34070983  0.93328283  0.70270671     0.08500
H1472       H  0.31320101  0.92713286  0.73265065     0.05200
C1473       C  0.51173911  0.85410196  0.63800390    -0.20600
C1474       C  0.52774484  0.87813207  0.62361084    -0.07100
C1475       C  0.51093882  0.90148895  0.60838688     0.13700
C1476       C  0.47865740  0.90013599  0.60815841    -0.20600
C1477       C  0.46270126  0.87596252  0.62243290    -0.07100
C1478       C  0.47955749  0.85268629  0.63771585     0.13700
C1479       C  0.46403362  0.82673349  0.65471542    -0.24000
H1480       H  0.52452681  0.83637466  0.64988395     0.15000
H1481       H  0.46578835  0.91785407  0.59634878     0.15000
C1482       C  0.52664436  0.92733965  0.59144734    -0.23900
H1483       H  0.48084832  0.81210225  0.66714548     0.05300
H1484       H  0.45158924  0.81166410  0.63832381     0.08500
H1485       H  0.44775263  0.83616176  0.67194177     0.08500
H1486       H  0.50988546  0.94228247  0.57931556     0.08500
H1487       H  0.54264172  0.91781826  0.57400978     0.08500
H1488       H  0.53949678  0.94205697  0.60785698     0.05200
C1489       C  0.36348540  0.90215757  0.26156567    -0.20600
C1490       C  0.37875030  0.87871223  0.27769720    -0.07100
C1491       C  0.39428154  0.85549982  0.26091731     0.13700
C1492       C  0.39341669  0.85598343  0.22865971    -0.20600
C1493       C  0.37715626  0.87872716  0.21274848    -0.07100
C1494       C  0.36239393  0.90238931  0.22931420     0.13700
C1495       C  0.34631124  0.92842682  0.21306277    -0.24000
H1496       H  0.35192725  0.92016737  0.27426314     0.15000
H1497       H  0.40512481  0.83822822  0.21572776     0.15000
C1498       C  0.41264398  0.83068620  0.27661660    -0.23900
H1499       H  0.33728557  0.94570301  0.22952403     0.05300
H1500       H  0.32658438  0.91948761  0.19956388     0.08500
H1501       H  0.36264345  0.94025779  0.19741293     0.08500
H1502       H  0.39723751  0.81553188  0.29014453     0.08500
H1503       H  0.43009905  0.84131338  0.29191575     0.08500
H1504       H  0.42493381  0.81592781  0.25982255     0.05200
C1505       C  0.48445594  0.90480391  0.38222053    -0.20600
C1506       C  0.46873188  0.87769172  0.37417365    -0.07100
C1507       C  0.48611716  0.85085706  0.36782984     0.13700
C1508       C  0.51830225  0.85220264  0.36907928    -0.20600
C1509       C  0.53406052  0.87936684  0.37672220    -0.07100
C1510       C  0.51670910  0.90604370  0.38375348     0.13700
C1511       C  0.53156066  0.93585649  0.39347597    -0.24000
H1512       H  0.47141496  0.92528012  0.38758277     0.15000
H1513       H  0.53128272  0.83168648  0.36372118     0.15000
C1514       C  0.47144044  0.82060294  0.35923882    -0.23900
H1515       H  0.51425530  0.95358279  0.39955832     0.05300
H1516       H  0.54560704  0.94528893  0.37439192     0.08500
H1517       H  0.54617525  0.93199472  0.41404504     0.08500
H1518       H  0.45696727  0.82349673  0.33844174     0.08500
H1519       H  0.45734181  0.81191377  0.37862921     0.08500
H1520       H  0.48880782  0.80267035  0.35399765     0.05200
C1521       C  0.35670037  0.85707243  0.47748214    -0.20600
C1522       C  0.37266153  0.88108002  0.46291092    -0.07100
C1523       C  0.38739781  0.90368913  0.48115957     0.13700
C1524       C  0.38599907  0.90138286  0.51330040    -0.20600
C1525       C  0.37043905  0.87710563  0.52783649    -0.07100
C1526       C  0.35523760  0.85482558  0.50961064     0.13700
C1527       C  0.33658876  0.82917380  0.52364087    -0.24000
H1528       H  0.34504495  0.83997077  0.46358397     0.15000
H1529       H  0.39761455  0.91848476  0.52723314     0.15000
C1530       C  0.40552494  0.92974607  0.46719418    -0.23900
H1531       H  0.32460791  0.81528571  0.50586301     0.05300
H1532       H  0.31884601  0.83887031  0.53919606     0.08500
H1533       H  0.35179689  0.81338306  0.53663723     0.08500
H1534       H  0.39001617  0.94502784  0.45393892     0.08500
H1535       H  0.42371100  0.92046361  0.45189946     0.08500
H1536       H  0.41691656  0.94406741  0.48501543     0.05200
C1537       C  0.85769248  0.39220014  0.73499588    -0.20600
C1538       C  0.87758338  0.37193505  0.71980109    -0.07100
C1539       C  0.89646456  0.35204212  0.73720318     0.13700
C1540       C  0.89516923  0.35320030  0.76942418    -0.20600
C1541       C  0.87592875  0.37412187  0.78464044    -0.07100
C1542       C  0.85681573  0.39379709  0.76719325     0.13700
C1543       C  0.83479489  0.41585470  0.78228600    -0.24000
H1544       H  0.84307170  0.40722381  0.72153260     0.15000
H1545       H  0.90961561  0.33798460  0.78285284     0.15000
C1546       C  0.91720058  0.32888425  0.72198281    -0.23900
H1547       H  0.82038098  0.42806271  0.76511909     0.05300
H1548       H  0.84770116  0.43351436  0.79540840     0.08500
H1549       H  0.81920932  0.40313219  0.79800382     0.08500
H1550       H  0.93503753  0.34080724  0.70820127     0.08500
H1551       H  0.90338097  0.31367986  0.70683499     0.08500
H1552       H  0.92917299  0.31421167  0.73909231     0.05200
C1553       C  0.86423709  0.23111074  0.60679534    -0.20600
C1554       C  0.88218035  0.21611753  0.62899335    -0.07100
C1555       C  0.90075472  0.23368242  0.64910019     0.13700
C1556       C  0.90023046  0.26586219  0.64691179    -0.20600
C1557       C  0.88140026  0.28080968  0.62542231    -0.07100
C1558       C  0.86377454  0.26318998  0.60452948     0.13700
C1559       C  0.84516406  0.27715816  0.57881616    -0.24000
H1560       H  0.85041938  0.21765401  0.59097485     0.15000
H1561       H  0.91415277  0.27947049  0.66246709     0.15000
C1562       C  0.92171297  0.21874861  0.67229484    -0.23900
H1563       H  0.82042207  0.27199144  0.58237820     0.05300
H1564       H  0.85251608  0.26703921  0.55657892     0.08500
H1565       H  0.84808526  0.30234469  0.57673045     0.08500
H1566       H  0.93764208  0.20270516  0.66048544     0.08500
H1567       H  0.90795815  0.20598504  0.68955843     0.08500
H1568       H  0.93577862  0.23599389  0.68484552     0.05200
C1569       C  0.89548402  0.39309169  0.26998255    -0.20600
C1570       C  0.87504620  0.37308641  0.28492500    -0.07100
C1571       C  0.85650468  0.35300518  0.26733424     0.13700
C1572       C  0.85827960  0.35410862  0.23519311    -0.20600
C1573       C  0.87783007  0.37495082  0.22022168    -0.07100
C1574       C  0.89697407  0.39448251  0.23782221     0.13700
C1575       C  0.91969168  0.41606416  0.22297647    -0.24000
H1576       H  0.91013192  0.40799279  0.28357745     0.15000
H1577       H  0.84397545  0.33884929  0.22160857     0.15000
C1578       C  0.83561496  0.32967819  0.28221559    -0.23900
H1579       H  0.93400394  0.42818551  0.24032176     0.05300
H1580       H  0.90736273  0.43381121  0.20946427     0.08500
H1581       H  0.93532979  0.40296445  0.20766148     0.08500
H1582       H  0.81718542  0.34147987  0.29526076     0.08500
H1583       H  0.84908069  0.31481226  0.29797879     0.08500
H1584       H  0.82434206  0.31463184  0.26492576     0.05200
C1585       C  0.89731253  0.36010070  0.48475489    -0.20600
C1586       C  0.87276227  0.37473487  0.46977223    -0.07100
C1587       C  0.84972111  0.38919399  0.48761024     0.13700
C1588       C  0.85182649  0.38834036  0.51981653    -0.20600
C1589       C  0.87644177  0.37374299  0.53477055    -0.07100
C1590       C  0.89948096  0.35933533  0.51690752     0.13700
C1591       C  0.92592777  0.34221479  0.53134954    -0.24000
H1592       H  0.91486536  0.34884221  0.47116098     0.15000
H1593       H  0.83427488  0.39954445  0.53345640     0.15000
C1594       C  0.82343430  0.40647815  0.47308088    -0.23900
H1595       H  0.94047908  0.33071085  0.51383837     0.05300
H1596       H  0.91701734  0.32422401  0.54712810     0.08500
H1597       H  0.94090464  0.35840124  0.54418040     0.08500
H1598       H  0.80849458  0.39041235  0.46004752     0.08500
H1599       H  0.83251216  0.42450245  0.45744793     0.08500
H1600       H  0.80882839  0.41795214  0.49056953     0.05200
C1601       C  0.89082093  0.73128236  0.60725939    -0.20600
C1602       C  0.86896645  0.71603113  0.62552794    -0.07100
C1603       C  0.84748735  0.73350650  0.64256704     0.13700
C1604       C  0.84867045  0.76568830  0.64108139    -0.20600
C1605       C  0.87024056  0.78082046  0.62253948    -0.07100
C1606       C  0.89154791  0.76347689  0.60531328     0.13700
C1607       C  0.91571882  0.77878702  0.58574697    -0.24000
H1608       H  0.90729265  0.71790469  0.59424984     0.15000
H1609       H  0.83246052  0.77919883  0.65429908     0.15000
C1610       C  0.82393084  0.71858277  0.66314508    -0.23900
H1611       H  0.93134384  0.76174406  0.57497625     0.05300
H1612       H  0.92985420  0.79449745  0.60010232     0.08500
H1613       H  0.90464838  0.79206209  0.56700883     0.08500
H1614       H  0.83557698  0.70352456  0.68013558     0.08500
H1615       H  0.80756556  0.70483960  0.64921175     0.08500
H1616       H  0.81031478  0.73587251  0.67604547     0.05200
C1617       C  0.85263178  0.64531289  0.73571965    -0.20600
C1618       C  0.87193100  0.62453588  0.72047122    -0.07100
C1619       C  0.88979532  0.60368294  0.73779014     0.13700
C1620       C  0.88821416  0.60444163  0.76998337    -0.20600
C1621       C  0.86945352  0.62570237  0.78532008    -0.07100
C1622       C  0.85131746  0.64637475  0.76793646     0.13700
C1623       C  0.82974866  0.66885459  0.78305000    -0.24000
H1624       H  0.83865973  0.66096810  0.72229658     0.15000
H1625       H  0.90188731  0.58843568  0.78330284     0.15000
C1626       C  0.90946826  0.57971242  0.72246347    -0.23900
H1627       H  0.81602375  0.68181542  0.76586683     0.05300
H1628       H  0.84298187  0.68587192  0.79668780     0.08500
H1629       H  0.81349532  0.65635874  0.79825896     0.08500
H1630       H  0.92781135  0.59089098  0.70872176     0.08500
H1631       H  0.89490115  0.56523429  0.70729417     0.08500
H1632       H  0.92077418  0.56441102  0.73947753     0.05200
C1633       C  0.84825680  0.51484130  0.62009463    -0.20600
C1634       C  0.87486515  0.53085592  0.62910733    -0.07100
C1635       C  0.90130491  0.51378339  0.63766151     0.13700
C1636       C  0.90005999  0.48157472  0.63735494    -0.20600
C1637       C  0.87347531  0.46556531  0.62833386    -0.07100
C1638       C  0.84718163  0.48261085  0.61934408     0.13700
C1639       C  0.81806419  0.46741718  0.60810709    -0.24000
H1640       H  0.82808875  0.52766628  0.61309117     0.15000
H1641       H  0.92025931  0.46875026  0.64427247     0.15000
C1642       C  0.93102016  0.52886369  0.64738624    -0.23900
H1643       H  0.80068289  0.48449790  0.60053541     0.05300
H1644       H  0.80750876  0.45375224  0.62687517     0.08500
H1645       H  0.82323581  0.45238971  0.58814821     0.08500
H1646       H  0.92695784  0.54427807  0.66722242     0.08500
H1647       H  0.94087568  0.54208519  0.62793078     0.08500
H1648       H  0.94856616  0.51175765  0.65450515     0.05200
C1649       C  0.85977435  0.64822946  0.23643420    -0.20600
C1650       C  0.87546360  0.62474233  0.22077615    -0.07100
C1651       C  0.89104621  0.60185733  0.23791614     0.13700
C1652       C  0.88998324  0.60281561  0.27009579    -0.20600
C1653       C  0.87355878  0.62573714  0.28555827    -0.07100
C1654       C  0.85856075  0.64896413  0.26864256     0.13700
C1655       C  0.84221482  0.67508990  0.28443510    -0.24000
H1656       H  0.84813245  0.66595455  0.22340455     0.15000
H1657       H  0.90179712  0.58534998  0.28334677     0.15000
C1658       C  0.90965591  0.57690397  0.22272234    -0.23900
H1659       H  0.83302167  0.69199671  0.26767487     0.05300
H1660       H  0.85841127  0.68733679  0.29991791     0.08500
H1661       H  0.82257925  0.66614787  0.29804138     0.08500
H1662       H  0.92714107  0.58731129  0.20730387     0.08500
H1663       H  0.89436764  0.56144060  0.20937472     0.08500
H1664       H  0.92194127  0.56248758  0.23983028     0.05200
C1665       C  0.88937031  0.51588112  0.35643989    -0.20600
C1666       C  0.86882718  0.53147516  0.37575121    -0.07100
C1667       C  0.84826904  0.51435919  0.39427840     0.13700
C1668       C  0.84938562  0.48208363  0.39350091    -0.20600
C1669       C  0.87057467  0.46654378  0.37481771    -0.07100
C1670       C  0.89031802  0.48367801  0.35548045     0.13700
C1671       C  0.91159172  0.46824283  0.33292885    -0.24000
H1672       H  0.90468494  0.52904248  0.34182822     0.15000
H1673       H  0.83411685  0.46887963  0.40811457     0.15000
C1674       C  0.82604123  0.52985676  0.41583141    -0.23900
H1675       H  0.92374885  0.48520893  0.31822059     0.05300
H1676       H  0.89814032  0.45283918  0.31765969     0.08500
H1677       H  0.92932609  0.45475917  0.34531054     0.08500
H1678       H  0.80916662  0.54358235  0.40254231     0.08500
H1679       H  0.83875740  0.54509962  0.43191265     0.08500
H1680       H  0.81293760  0.51290540  0.42972163     0.05200
C1681       C  0.84860185  0.61084555  0.48542247    -0.20600
C1682       C  0.87468162  0.62235047  0.47025776    -0.07100
C1683       C  0.89964074  0.63354059  0.48798754     0.13700
C1684       C  0.89761377  0.63308793  0.52014583    -0.20600
C1685       C  0.87144221  0.62181493  0.53536882    -0.07100
C1686       C  0.84659670  0.61030992  0.51760695     0.13700
C1687       C  0.81810467  0.59676364  0.53202345    -0.24000
H1688       H  0.82959945  0.60196056  0.47194462     0.15000
H1689       H  0.91665444  0.64202325  0.53352786     0.15000
C1690       C  0.92821123  0.64685984  0.47350691    -0.23900
H1691       H  0.80207408  0.58733728  0.51450599     0.05300
H1692       H  0.80545017  0.61474513  0.54489765     0.08500
H1693       H  0.82452545  0.57765834  0.54767603     0.08500
H1694       H  0.92191938  0.66605588  0.45791381     0.08500
H1695       H  0.94063515  0.62879247  0.46053095     0.08500
H1696       H  0.94440342  0.65607761  0.49098696     0.05200
C1697       C  0.36136840  0.09874687  0.73785767    -0.20600
C1698       C  0.37880493  0.12125953  0.72264647    -0.07100
C1699       C  0.39584253  0.14283114  0.74009085     0.13700
C1700       C  0.39463403  0.14152382  0.77225007    -0.20600
C1701       C  0.37665049  0.11948667  0.78734132    -0.07100
C1702       C  0.35998035  0.09764914  0.77002760     0.13700
C1703       C  0.34176671  0.07245942  0.78534446    -0.24000
H1704       H  0.34861057  0.08200976  0.72447297     0.15000
H1705       H  0.40765682  0.15795693  0.78577193     0.15000
C1706       C  0.41632283  0.16643056  0.72512186    -0.23900
H1707       H  0.33128065  0.05659473  0.76829275     0.05300
H1708       H  0.32289589  0.08246612  0.79923983     0.08500
H1709       H  0.35713717  0.05879878  0.80042969     0.08500
H1710       H  0.40238361  0.18273189  0.71136249     0.08500
H1711       H  0.43325192  0.15469668  0.71011780     0.08500
H1712       H  0.42929615  0.18009956  0.74237013     0.05200
C1713       C  0.27195234  0.13702834  0.60851438    -0.20600
C1714       C  0.28692857  0.11757180  0.62937365    -0.07100
C1715       C  0.26934026  0.09903199  0.64943086     0.13700
C1716       C  0.23712277  0.10055032  0.64809817    -0.20600
C1717       C  0.22211885  0.11969839  0.62688624    -0.07100
C1718       C  0.23979517  0.13818411  0.60679509     0.13700
C1719       C  0.22505364  0.15996926  0.58423475    -0.24000
H1720       H  0.28558220  0.15131238  0.59328794     0.15000
H1721       H  0.22352524  0.08651192  0.66356700     0.15000
C1722       C  0.28433909  0.07852028  0.67297445    -0.23900
H1723       H  0.24244277  0.17393782  0.57179936     0.05300
H1724       H  0.20950099  0.17599218  0.59654396     0.08500
H1725       H  0.21183531  0.14688531  0.56677481     0.08500
H1726       H  0.29959158  0.09237440  0.68807054     0.08500
H1727       H  0.29800769  0.06043915  0.66134092     0.08500
H1728       H  0.26707442  0.06685726  0.68773309     0.05200
C1729       C  0.35486387  0.10526915  0.27159917    -0.20600
C1730       C  0.37517819  0.12472288  0.28734770    -0.07100
C1731       C  0.39546277  0.14375351  0.27051787     0.13700
C1732       C  0.39406707  0.14363740  0.23830613    -0.20600
C1733       C  0.37286534  0.12509922  0.22252988    -0.07100
C1734       C  0.35336904  0.10524182  0.23939337     0.13700
C1735       C  0.33194921  0.08300850  0.22365877    -0.24000
H1736       H  0.33986114  0.09021482  0.28460483     0.15000
H1737       H  0.40943428  0.15836091  0.22533328     0.15000
C1738       C  0.41936144  0.16334559  0.28628922    -0.23900
H1739       H  0.31980052  0.06803674  0.24039598     0.05300
H1740       H  0.34536087  0.06799930  0.20802972     0.08500
H1741       H  0.31421871  0.09565342  0.21041610     0.08500
H1742       H  0.43408816  0.14873853  0.30114935     0.08500
H1743       H  0.40808810  0.18127386  0.30045342     0.08500
H1744       H  0.43448148  0.17521402  0.26948592     0.05200
C1745       C  0.38608247  0.09594146  0.48725667    -0.20600
C1746       C  0.37713539  0.12319407  0.47239569    -0.07100
C1747       C  0.36917042  0.14906335  0.49057156     0.13700
C1748       C  0.37014546  0.14670891  0.52266891    -0.20600
C1749       C  0.37896566  0.11945766  0.53755950    -0.07100
C1750       C  0.38725649  0.09367257  0.51942375     0.13700
C1751       C  0.39797482  0.06379914  0.53336273    -0.24000
H1752       H  0.39251768  0.07615914  0.47357255     0.15000
H1753       H  0.36368511  0.16652821  0.53628518     0.15000
C1754       C  0.35905606  0.17924207  0.47679755    -0.23900
H1755       H  0.40483916  0.04687501  0.51553962     0.05300
H1756       H  0.37913813  0.05320481  0.54691547     0.08500
H1757       H  0.41828868  0.06797357  0.54826523     0.08500
H1758       H  0.33868379  0.17558214  0.46182564     0.08500
H1759       H  0.37814430  0.18957338  0.46340651     0.08500
H1760       H  0.35247863  0.19621184  0.49468257     0.05200
C1761       C  0.73757157  0.10335355  0.63988486    -0.20600
C1762       C  0.72234389  0.12747152  0.62471234    -0.07100
C1763       C  0.73992611  0.15121082  0.61089346     0.13700
C1764       C  0.77210169  0.15003330  0.61263660    -0.20600
C1765       C  0.78701333  0.12622564  0.62826924    -0.07100
C1766       C  0.76968294  0.10251967  0.64197353     0.13700
C1767       C  0.78502143  0.07583859  0.65791831    -0.24000
H1768       H  0.72425533  0.08511984  0.65045878     0.15000
H1769       H  0.78578333  0.16795680  0.60196492     0.15000
C1770       C  0.72524890  0.17738193  0.59358355    -0.23900
H1771       H  0.76799572  0.05873481  0.66628324     0.05300
H1772       H  0.79829189  0.08415820  0.67805965     0.08500
H1773       H  0.80078770  0.06400045  0.64173540     0.08500
H1774       H  0.71150742  0.19175616  0.60950432     0.08500
H1775       H  0.71028998  0.16821644  0.57501796     0.08500
H1776       H  0.74270121  0.19259730  0.58280003     0.05200
C1777       C  0.64820610  0.10660320  0.73300176    -0.20600
C1778       C  0.62963227  0.12725806  0.71662542    -0.07100
C1779       C  0.61036533  0.14778461  0.73291159     0.13700
C1780       C  0.61041177  0.14724054  0.76512376    -0.20600
C1781       C  0.62958399  0.12719309  0.78145184    -0.07100
C1782       C  0.64861027  0.10645353  0.76525084     0.13700
C1783       C  0.66851597  0.08339468  0.78175771    -0.24000
H1784       H  0.66270012  0.09072016  0.72048752     0.15000
H1785       H  0.59561416  0.16279212  0.77768153     0.15000
C1786       C  0.58892276  0.16962730  0.71664791    -0.23900
H1787       H  0.68048790  0.06785763  0.76544617     0.05300
H1788       H  0.65412811  0.06901958  0.79719231     0.08500
H1789       H  0.68637288  0.09542706  0.79544941     0.08500
H1790       H  0.57359925  0.15664353  0.70085509     0.08500
H1791       H  0.60231733  0.18685923  0.70346789     0.08500
H1792       H  0.57418357  0.18242075  0.73308072     0.05200
C1793       C  0.52164599  0.14884097  0.63498075    -0.20600
C1794       C  0.53721173  0.12198492  0.62615577    -0.07100
C1795       C  0.51976617  0.09555152  0.61833849     0.13700
C1796       C  0.48759281  0.09674786  0.62001211    -0.20600
C1797       C  0.47199847  0.12354861  0.62898672    -0.07100
C1798       C  0.48945578  0.15013721  0.63637564     0.13700
C1799       C  0.47482549  0.18000540  0.64612152    -0.24000
H1800       H  0.53479523  0.16912678  0.64104644     0.15000
H1801       H  0.47447544  0.07646292  0.61387535     0.15000
C1802       C  0.53443737  0.06607871  0.60750052    -0.23900
H1803       H  0.49224154  0.19768061  0.65221101     0.05300
H1804       H  0.46022954  0.17625384  0.66666053     0.08500
H1805       H  0.46082821  0.18949226  0.62703085     0.08500
H1806       H  0.54845946  0.05590192  0.62620947     0.08500
H1807       H  0.54902030  0.07065500  0.58706805     0.08500
H1808       H  0.51703012  0.04861737  0.60078613     0.05200
C1809       C  0.61550003  0.15405436  0.23231997    -0.20600
C1810       C  0.62578617  0.12797067  0.21662083    -0.07100
C1811       C  0.63499686  0.10178109  0.23318884     0.13700
C1812       C  0.63449577  0.10252780  0.26537948    -0.20600
C1813       C  0.62489485  0.12887071  0.28152781    -0.07100
C1814       C  0.61497471  0.15498284  0.26459505     0.13700
C1815       C  0.60311902  0.18366559  0.27997485    -0.24000
H1816       H  0.60811419  0.17388522  0.21919555     0.15000
H1817       H  0.64182537  0.08234853  0.27795654     0.15000
C1818       C  0.64454343  0.07275224  0.21687310    -0.23900
H1819       H  0.59487543  0.20083825  0.26298445     0.05300
H1820       H  0.62175446  0.19472270  0.29346195     0.08500
H1821       H  0.58351185  0.17783174  0.29523334     0.08500
H1822       H  0.66514308  0.07723208  0.20250233     0.08500
H1823       H  0.62549622  0.06457626  0.20195660     0.08500
H1824       H  0.65027435  0.05408687  0.23330598     0.05200
C1825       C  0.51664330  0.10434448  0.35833551    -0.20600
C1826       C  0.53271038  0.12639377  0.37556821    -0.07100
C1827       C  0.51601809  0.14775311  0.39357504     0.13700
C1828       C  0.48377921  0.14635439  0.39382861    -0.20600
C1829       C  0.46775619  0.12410036  0.37681282    -0.07100
C1830       C  0.48442348  0.10300732  0.35853836     0.13700
C1831       C  0.46852215  0.07974291  0.33831454    -0.24000
H1832       H  0.52941577  0.08821446  0.34432061     0.15000
H1833       H  0.47096818  0.16248560  0.40780693     0.15000
C1834       C  0.53186064  0.17135835  0.41346475    -0.23900
H1835       H  0.48514566  0.06669919  0.32401994     0.05300
H1836       H  0.45229439  0.09157713  0.32256890     0.08500
H1837       H  0.45587249  0.06283681  0.35261025     0.08500
H1838       H  0.54459603  0.18797774  0.39891072     0.08500
H1839       H  0.54799612  0.15979921  0.42951498     0.08500
H1840       H  0.51519281  0.18469666  0.42743144     0.05200
C1841       C  0.61213903  0.14539494  0.48249725    -0.20600
C1842       C  0.62512499  0.12048931  0.46670780    -0.07100
C1843       C  0.63822638  0.09604769  0.48377131     0.13700
C1844       C  0.63865660  0.09773117  0.51600869    -0.20600
C1845       C  0.62640978  0.12310073  0.53175930    -0.07100
C1846       C  0.61242822  0.14704950  0.51463941     0.13700
C1847       C  0.59699033  0.17416497  0.52974669    -0.24000
H1848       H  0.60155055  0.16383417  0.46952542     0.15000
H1849       H  0.64915320  0.07926485  0.52899954     0.15000
C1850       C  0.65267837  0.06856608  0.46842409    -0.23900
H1851       H  0.58535047  0.18920474  0.51272216     0.05300
H1852       H  0.61427607  0.18851943  0.54184129     0.08500
H1853       H  0.57926978  0.16599247  0.54620177     0.08500
H1854       H  0.67115337  0.07621937  0.45255450     0.08500
H1855       H  0.63497858  0.05546596  0.45552727     0.08500
H1856       H  0.66309785  0.05259269  0.48538683     0.05200
C1857       C  0.10134825  0.60270120  0.72966706    -0.20600
C1858       C  0.12134331  0.62299535  0.71458418    -0.07100
C1859       C  0.13926425  0.64381956  0.73196093     0.13700
C1860       C  0.13731338  0.64316818  0.76410529    -0.20600
C1861       C  0.11810050  0.62213298  0.77926528    -0.07100
C1862       C  0.09954017  0.60191234  0.76182335     0.13700
C1863       C  0.07690056  0.58039460  0.77680512    -0.24000
H1864       H  0.08725993  0.58716616  0.71617432     0.15000
H1865       H  0.15120604  0.65893082  0.77753259     0.15000
C1866       C  0.15963629  0.66744321  0.71681134    -0.23900
H1867       H  0.06306209  0.56761867  0.75954727     0.05300
H1868       H  0.06082627  0.59379361  0.79135262     0.08500
H1869       H  0.08916210  0.56319027  0.79105563     0.08500
H1870       H  0.14583855  0.68176230  0.70081292     0.08500
H1871       H  0.17837261  0.65591661  0.70395583     0.08500
H1872       H  0.17049782  0.68298747  0.73392143     0.05200
C1873       C  0.10427583  0.72933773  0.64364685    -0.20600
C1874       C  0.12254015  0.71422884  0.62188197    -0.07100
C1875       C  0.13918684  0.73162794  0.60009504     0.13700
C1876       C  0.13727965  0.76384211  0.60081411    -0.20600
C1877       C  0.11964722  0.77908625  0.62313639    -0.07100
C1878       C  0.10284102  0.76153803  0.64482147     0.13700
C1879       C  0.08267056  0.77641703  0.66872461    -0.24000
H1880       H  0.09139089  0.71580114  0.66013844     0.15000
H1881       H  0.15006499  0.77724094  0.58414762     0.15000
C1882       C  0.15823591  0.71633619  0.57554103    -0.23900
H1883       H  0.06973654  0.75910011  0.68232009     0.05300
H1884       H  0.06570166  0.79175922  0.65741129     0.08500
H1885       H  0.09691013  0.78984941  0.68507779     0.08500
H1886       H  0.14361390  0.70048254  0.56184271     0.08500
H1887       H  0.17730512  0.70321268  0.58621147     0.08500
H1888       H  0.16854612  0.73338365  0.55957618     0.05200
C1889       C  0.10694120  0.64528021  0.26343554    -0.20600
C1890       C  0.12999267  0.62907502  0.27918061    -0.07100
C1891       C  0.15257911  0.61295871  0.26215287     0.13700
C1892       C  0.15114339  0.61320207  0.22991965    -0.20600
C1893       C  0.12821472  0.62961159  0.21436580    -0.07100
C1894       C  0.10587797  0.64592134  0.23125743     0.13700
C1895       C  0.08018664  0.66302197  0.21550296    -0.24000
H1896       H  0.08964733  0.65761194  0.27640714     0.15000
H1897       H  0.16810424  0.60064771  0.21671506     0.15000
C1898       C  0.17762331  0.59464530  0.27757574    -0.23900
H1899       H  0.06394575  0.67327701  0.23229017     0.05300
H1900       H  0.06701046  0.64702911  0.20056877     0.08500
H1901       H  0.08971409  0.68198429  0.20136373     0.08500
H1902       H  0.16730737  0.57733513  0.29324878     0.08500
H1903       H  0.19299028  0.61018803  0.29073759     0.08500
H1904       H  0.19207810  0.58222060  0.26062084     0.05200
C1905       C  0.15102570  0.62919761  0.48020415    -0.20600
C1906       C  0.12289582  0.62749128  0.46436819    -0.07100
C1907       C  0.09541014  0.62430773  0.48166465     0.13700
C1908       C  0.09711037  0.62256267  0.51383549    -0.20600
C1909       C  0.12530717  0.62398525  0.52963517    -0.07100
C1910       C  0.15274116  0.62752175  0.51231987     0.13700
C1911       C  0.18412764  0.62978855  0.52698136    -0.24000
H1912       H  0.17218257  0.63187802  0.46733130     0.15000
H1913       H  0.07596780  0.61999587  0.52675276     0.15000
C1914       C  0.06406771  0.62248699  0.46687938    -0.23900
H1915       H  0.20263583  0.63288821  0.50967833     0.05300
H1916       H  0.18931796  0.60834686  0.53976897     0.08500
H1917       H  0.18503378  0.64991991  0.54264106     0.08500
H1918       H  0.06291410  0.60232269  0.45127298     0.08500
H1919       H  0.05931823  0.64394538  0.45394873     0.08500
H1920       H  0.04545875  0.61977775  0.48413701     0.05200
C1921       C  0.14987508  0.26390888  0.63989521    -0.20600
C1922       C  0.12730416  0.27863087  0.62209596    -0.07100
C1923       C  0.10606682  0.26058118  0.60525692     0.13700
C1924       C  0.10798659  0.22838079  0.60675344    -0.20600
C1925       C  0.13007861  0.21376477  0.62515258    -0.07100
C1926       C  0.15134096  0.23173572  0.64189685     0.13700
C1927       C  0.17618015  0.21715040  0.66113889    -0.24000
H1928       H  0.16626403  0.27769347  0.65264569     0.15000
H1929       H  0.09184637  0.21446906  0.59380876     0.15000
C1930       C  0.08194834  0.27496147  0.58496206    -0.23900
H1931       H  0.19170385  0.23463322  0.67144026     0.05300
H1932       H  0.19030920  0.20160914  0.64668256     0.08500
H1933       H  0.16574716  0.20384909  0.68022528     0.08500
H1934       H  0.09305348  0.29037774  0.56791026     0.08500
H1935       H  0.06544843  0.28826187  0.59909649     0.08500
H1936       H  0.06858620  0.25735247  0.57215154     0.05200
C1937       C  0.14914760  0.35037795  0.76391656    -0.20600
C1938       C  0.12784049  0.36853406  0.77983254    -0.07100
C1939       C  0.10623974  0.38614278  0.76315534     0.13700
C1940       C  0.10701944  0.38577872  0.73093655    -0.20600
C1941       C  0.12903939  0.36854362  0.71489948    -0.07100
C1942       C  0.15021216  0.35031679  0.73162460     0.13700
C1943       C  0.17333072  0.33004618  0.71571052    -0.24000
H1944       H  0.16537753  0.33661955  0.77684444     0.15000
H1945       H  0.09054703  0.39939136  0.71816420     0.15000
C1946       C  0.08167858  0.40459541  0.77916887    -0.23900
H1947       H  0.18667648  0.31603631  0.73235684     0.05300
H1948       H  0.18996239  0.34429752  0.70265133     0.08500
H1949       H  0.16130712  0.31406121  0.69983825     0.08500
H1950       H  0.09229560  0.42325264  0.79294255     0.08500
H1951       H  0.06801389  0.38937921  0.79445607     0.08500
H1952       H  0.06564644  0.41546134  0.76253951     0.05200
C1953       C  0.10373945  0.47907126  0.60758921    -0.20600
C1954       C  0.12742001  0.46398122  0.62346838    -0.07100
C1955       C  0.14992385  0.48173873  0.63894866     0.13700
C1956       C  0.14806103  0.51397015  0.63807079    -0.20600
C1957       C  0.12429660  0.52908681  0.62227004    -0.07100
C1958       C  0.10191276  0.51127392  0.60661454     0.13700
C1959       C  0.07658331  0.52580303  0.58793438    -0.24000
H1960       H  0.08667865  0.46551186  0.59546677     0.15000
H1961       H  0.16514977  0.52749556  0.65018115     0.15000
C1962       C  0.17538387  0.46704964  0.65730427    -0.23900
H1963       H  0.06264073  0.50833021  0.57555837     0.05300
H1964       H  0.08660047  0.54154420  0.57051530     0.08500
H1965       H  0.06074646  0.53867725  0.60318302     0.08500
H1966       H  0.19089804  0.45402755  0.64185264     0.08500
H1967       H  0.16547784  0.45136251  0.67483752     0.08500
H1968       H  0.18960063  0.48444258  0.66947522     0.05200
C1969       C  0.10210287  0.38147068  0.26312127    -0.20600
C1970       C  0.12971629  0.37608854  0.27919072    -0.07100
C1971       C  0.15677568  0.36927612  0.26204215     0.13700
C1972       C  0.15536271  0.36862463  0.22980440    -0.20600
C1973       C  0.12796874  0.37474576  0.21423791    -0.07100
C1974       C  0.10096881  0.38090640  0.23089860     0.13700
C1975       C  0.07090472  0.38651934  0.21459329    -0.24000
H1976       H  0.08124742  0.38643781  0.27574392     0.15000
H1977       H  0.17587902  0.36375158  0.21655449     0.15000
C1978       C  0.18730044  0.36239235  0.27700919    -0.23900
H1979       H  0.05182330  0.39059957  0.23103380     0.05300
H1980       H  0.06487575  0.36621126  0.20034999     0.08500
H1981       H  0.07292265  0.40699844  0.19950616     0.08500
H1982       H  0.18495427  0.34254054  0.29284194     0.08500
H1983       H  0.19566628  0.38288548  0.28970768     0.08500
H1984       H  0.20521095  0.35640183  0.25985032     0.05200
C1985       C  0.10703035  0.48688838  0.39102320    -0.20600
C1986       C  0.12636329  0.47141424  0.37036686    -0.07100
C1987       C  0.14452447  0.48861873  0.34960821     0.13700
C1988       C  0.14354164  0.52085133  0.35064712    -0.20600
C1989       C  0.12447832  0.53632825  0.37149756    -0.07100
C1990       C  0.10596581  0.51916303  0.39197905     0.13700
C1991       C  0.08608621  0.53471958  0.41569065    -0.24000
H1992       H  0.09315892  0.47362264  0.40692782     0.15000
H1993       H  0.15748477  0.53411125  0.33480404     0.15000
C1994       C  0.16404948  0.47315969  0.32554783    -0.23900
H1995       H  0.07441131  0.51778853  0.43082113     0.05300
H1996       H  0.06802950  0.54858708  0.40422103     0.08500
H1997       H  0.10043152  0.54989941  0.43039678     0.08500
H1998       H  0.14951720  0.45783438  0.31118847     0.08500
H1999       H  0.18248670  0.45949611  0.33665130     0.08500
H2000       H  0.17524868  0.49013912  0.31011610     0.05200
C2001       C  0.10388083  0.39165649  0.48087254    -0.20600
C2002       C  0.12768116  0.37710898  0.46471460    -0.07100
C2003       C  0.15031068  0.36060641  0.48134945     0.13700
C2004       C  0.14880184  0.35969819  0.51353631    -0.20600
C2005       C  0.12518602  0.37445516  0.52974654    -0.07100
C2006       C  0.10234274  0.39068393  0.51311380     0.13700
C2007       C  0.07687552  0.40793831  0.52903188    -0.24000
H2008       H  0.08652841  0.40425477  0.46816058     0.15000
H2009       H  0.16613091  0.34701322  0.52619566     0.15000
C2010       C  0.17553904  0.34291758  0.46548698    -0.23900
H2011       H  0.06235075  0.42082815  0.51246441     0.05300
H2012       H  0.08678399  0.42476635  0.54548943     0.08500
H2013       H  0.06164627  0.39163341  0.54138734     0.08500
H2014       H  0.19121684  0.35895200  0.45334551     0.08500
H2015       H  0.16539834  0.32637768  0.44887852     0.08500
H2016       H  0.18969041  0.32962519  0.48206212     0.05200
C2017       C  0.76805786  0.87893858  0.35142869    -0.20600
C2018       C  0.78368320  0.87167408  0.37887334    -0.07100
C2019       C  0.76615010  0.86426578  0.40545735     0.13700
C2020       C  0.73392064  0.86429258  0.40364103    -0.20600
C2021       C  0.71879911  0.87215335  0.37641646    -0.07100
C2022       C  0.73588229  0.87948148  0.34998416     0.13700
C2023       C  0.72011952  0.88756612  0.32019638    -0.24000
H2024       H  0.78101469  0.88468649  0.33096607     0.15000
H2025       H  0.72033056  0.85878183  0.42378917     0.15000
C2026       C  0.78073053  0.85626851  0.43586903    -0.23900
H2027       H  0.73690078  0.89220280  0.30153825     0.05300
H2028       H  0.70587067  0.90847047  0.32334697     0.08500
H2029       H  0.70512754  0.86824655  0.31281382     0.08500
H2030       H  0.79378265  0.87628856  0.44482884     0.08500
H2031       H  0.79622481  0.83625145  0.43313850     0.08500
H2032       H  0.76329177  0.85010913  0.45346538     0.05200
C2033       C  0.89912003  0.76532428  0.36030056    -0.20600
C2034       C  0.87767895  0.78126720  0.37828632    -0.07100
C2035       C  0.85633159  0.76460648  0.39621499     0.13700
C2036       C  0.85703870  0.73239756  0.39581245    -0.20600
C2037       C  0.87877992  0.71631702  0.37826339    -0.07100
C2038       C  0.90018855  0.73302884  0.36027363     0.13700
C2039       C  0.92354148  0.71711865  0.34026944    -0.24000
H2040       H  0.91529958  0.77824722  0.34644595     0.15000
H2041       H  0.84049958  0.71964314  0.40940222     0.15000
C2042       C  0.83193181  0.78062792  0.41482017    -0.23900
H2043       H  0.93722236  0.73378460  0.32658607     0.05300
H2044       H  0.91174566  0.70136422  0.32399605     0.08500
H2045       H  0.93984034  0.70390943  0.35474659     0.08500
H2046       H  0.81794846  0.79552815  0.39954133     0.08500
H2047       H  0.84272512  0.79477357  0.43309413     0.08500
H2048       H  0.81618793  0.76402711  0.42616714     0.05200
C2049       C  0.85546899  0.26556999  0.39611280    -0.20600
C2050       C  0.87560444  0.28163060  0.37670485    -0.07100
C2051       C  0.89495083  0.26500943  0.35657048     0.13700
C2052       C  0.89393191  0.23273125  0.35672663    -0.20600
C2053       C  0.87440179  0.21666459  0.37676568    -0.07100
C2054       C  0.85474715  0.23331416  0.39657402     0.13700
C2055       C  0.83213783  0.21731459  0.41740272    -0.24000
H2056       H  0.84037549  0.27837433  0.41119733     0.15000
H2057       H  0.90871861  0.21992529  0.34134613     0.15000
C2058       C  0.91591060  0.28109046  0.33413847    -0.23900
H2059       H  0.81735238  0.23394191  0.42987649     0.05300
H2060       H  0.84454665  0.20349875  0.43486129     0.08500
H2061       H  0.81695219  0.20211336  0.40360779     0.08500
H2062       H  0.93363012  0.29446040  0.34672923     0.08500
H2063       H  0.90232470  0.29676570  0.31928796     0.08500
H2064       H  0.92805979  0.26452383  0.31901580     0.05200
C2065       C  0.76688878  0.14206228  0.39518388    -0.20600
C2066       C  0.78263951  0.12254361  0.37499779    -0.07100
C2067       C  0.76575557  0.10235339  0.35587304     0.13700
C2068       C  0.73349698  0.10293126  0.35677614    -0.20600
C2069       C  0.71771099  0.12345957  0.37595541    -0.07100
C2070       C  0.73465227  0.14299846  0.39577626     0.13700
C2071       C  0.71901686  0.16422055  0.41826253    -0.24000
H2072       H  0.77993062  0.15705318  0.41025632     0.15000
H2073       H  0.72049062  0.08763009  0.34198127     0.15000
C2074       C  0.78157301  0.07950366  0.33521171    -0.23900
H2075       H  0.73586328  0.17615261  0.43332244     0.05300
H2076       H  0.70318750  0.15086771  0.43319816     0.08500
H2077       H  0.70595510  0.18217051  0.40576025     0.08500
H2078       H  0.79717134  0.06474727  0.34900059     0.08500
H2079       H  0.79498806  0.09171370  0.31729926     0.08500
H2080       H  0.76482035  0.06431765  0.32330948     0.05200
C2081       C  0.88865993  0.98170477  0.35164136    -0.20600
C2082       C  0.87384211  0.96631986  0.37581807    -0.07100
C2083       C  0.85871132  0.98378558  0.39873773     0.13700
C2084       C  0.85943951  0.01601265  0.39711140    -0.20600
C2085       C  0.87466916  0.03142474  0.37316952    -0.07100
C2086       C  0.88941267  0.01393062  0.35002670     0.13700
C2087       C  0.90697388  0.02884030  0.32413971    -0.24000
H2088       H  0.90029398  0.96837427  0.33411887     0.15000
H2089       H  0.84779598  0.02931774  0.41464379     0.15000
C2090       C  0.84093647  0.96881876  0.42447571    -0.23900
H2091       H  0.91864476  0.01158201  0.30941349     0.05300
H2092       H  0.92488332  0.04440238  0.33361534     0.08500
H2093       H  0.89104056  0.04199155  0.30920904     0.08500
H2094       H  0.85677304  0.95598498  0.43978064     0.08500
H2095       H  0.82339638  0.95293505  0.41484342     0.08500
H2096       H  0.82880340  0.98603337  0.43887209     0.05200
C2097       C  0.10875850  0.73686835  0.35122503    -0.20600
C2098       C  0.12832737  0.72135308  0.37162265    -0.07100
C2099       C  0.14733087  0.73855516  0.39167306     0.13700
C2100       C  0.14626319  0.77080492  0.39071806    -0.20600
C2101       C  0.12713489  0.78633319  0.36989323    -0.07100
C2102       C  0.10808386  0.76909930  0.34986894     0.13700
C2103       C  0.08622684  0.78439463  0.32773546    -0.24000
H2104       H  0.09410763  0.72363131  0.33599996     0.15000
H2105       H  0.16070900  0.78402092  0.40615011     0.15000
C2106       C  0.16799678  0.72315566  0.41482887    -0.23900
H2107       H  0.07180978  0.76735350  0.31530331     0.05300
H2108       H  0.09928653  0.79755865  0.31024275     0.08500
H2109       H  0.07061261  0.80007606  0.34042392     0.08500
H2110       H  0.18599663  0.70967873  0.40285797     0.08500
H2111       H  0.15423625  0.70770410  0.42979118     0.08500
H2112       H  0.17982257  0.74015404  0.42978677     0.05200
C2113       C  0.23432057  0.90052909  0.38765804    -0.20600
C2114       C  0.21872925  0.88032492  0.36790635    -0.07100
C2115       C  0.23573189  0.86038358  0.34876089     0.13700
C2116       C  0.26796044  0.86154723  0.34950290    -0.20600
C2117       C  0.28356815  0.88225825  0.36872165    -0.07100
C2118       C  0.26654900  0.90183708  0.38827086     0.13700
C2119       C  0.28212257  0.92319028  0.41072748    -0.24000
H2120       H  0.22116993  0.91543811  0.40262705     0.15000
H2121       H  0.28109030  0.84623094  0.33493535     0.15000
C2122       C  0.22012345  0.83697666  0.32849572    -0.23900
H2123       H  0.26522537  0.93541244  0.42541773     0.05300
H2124       H  0.29558481  0.94084507  0.39816685     0.08500
H2125       H  0.29762974  0.90988645  0.42601787     0.08500
H2126       H  0.20613761  0.84872107  0.31070357     0.08500
H2127       H  0.20508884  0.82192859  0.34261411     0.08500
H2128       H  0.23702200  0.82213575  0.31646150     0.05200
C2129       C  0.98482393  0.89129910  0.39712591    -0.20600
C2130       C  0.96900111  0.87533701  0.37395130    -0.07100
C2131       C  0.98598560  0.86005141  0.35077676     0.13700
C2132       C  0.01819592  0.86149768  0.35128662    -0.20600
C2133       C  0.03400343  0.87749526  0.37442691    -0.07100
C2134       C  0.01705299  0.89269040  0.39765790     0.13700
C2135       C  0.03253146  0.91129998  0.42249918    -0.24000
H2136       H  0.97185001  0.90312697  0.41475983     0.15000
H2137       H  0.03117948  0.84967622  0.33365732     0.15000
C2138       C  0.97060428  0.84124577  0.32601196    -0.23900
H2139       H  0.01557132  0.92323570  0.43735557     0.05300
H2140       H  0.04756527  0.92905988  0.41197310     0.08500
H2141       H  0.04637007  0.89606903  0.43753485     0.08500
H2142       H  0.95683196  0.85634655  0.31078360     0.08500
H2143       H  0.95555106  0.82355893  0.33661568     0.08500
H2144       H  0.98761635  0.82918260  0.31131839     0.05200
C2145       C  0.23308616  0.10590012  0.36153469    -0.20600
C2146       C  0.21782969  0.12687520  0.38064077    -0.07100
C2147       C  0.23522093  0.14653007  0.39985525     0.13700
C2148       C  0.26745621  0.14484355  0.39921769    -0.20600
C2149       C  0.28273379  0.12363745  0.38033721    -0.07100
C2150       C  0.26528273  0.10378492  0.36131818     0.13700
C2151       C  0.28036785  0.08112495  0.33990821    -0.24000
H2152       H  0.21965492  0.09089327  0.34681549     0.15000
H2153       H  0.28086499  0.16008518  0.41371293     0.15000
C2154       C  0.22002968  0.17005444  0.42021699    -0.23900
H2155       H  0.26322978  0.06878588  0.32552443     0.05300
H2156       H  0.29313617  0.06361172  0.35331187     0.08500
H2157       H  0.29639536  0.09337831  0.32428041     0.08500
H2158       H  0.20581290  0.15841148  0.43789118     0.08500
H2159       H  0.20529189  0.18543049  0.40615804     0.08500
H2160       H  0.23719303  0.18453326  0.43240809     0.05200
C2161       C  0.14555528  0.23645265  0.35544876    -0.20600
C2162       C  0.12725094  0.22156707  0.37751685    -0.07100
C2163       C  0.10987445  0.23953443  0.39837176     0.13700
C2164       C  0.11099832  0.27172409  0.39623629    -0.20600
C2165       C  0.12950219  0.28647208  0.37436007    -0.07100
C2166       C  0.14710822  0.26864186  0.35376102     0.13700
C2167       C  0.16661224  0.28340671  0.32923313    -0.24000
H2168       H  0.15888987  0.22277186  0.33945979     0.15000
H2169       H  0.09750312  0.28556710  0.41195843     0.15000
C2170       C  0.08936396  0.22512062  0.42229746    -0.23900
H2171       H  0.17772726  0.26601290  0.31424153     0.05300
H2172       H  0.18510177  0.29735082  0.33994921     0.08500
H2173       H  0.15207764  0.29835114  0.31451849     0.08500
H2174       H  0.10341083  0.21211681  0.43912507     0.08500
H2175       H  0.07256319  0.20946834  0.41108582     0.08500
H2176       H  0.07622324  0.24268271  0.43532595     0.05200
C2177       C  0.01761827  0.10919415  0.39463563    -0.20600
C2178       C  0.03280269  0.12791829  0.37317825    -0.07100
C2179       C  0.01518561  0.14486969  0.35171341     0.13700
C2180       C  0.98294058  0.14292656  0.35265481    -0.20600
C2181       C  0.96777362  0.12459181  0.37448068    -0.07100
C2182       C  0.98542995  0.10707468  0.39543577     0.13700
C2183       C  0.97067360  0.08521432  0.41793570    -0.24000
H2184       H  0.03111545  0.09576984  0.41072662     0.15000
H2185       H  0.96941507  0.15628918  0.33653792     0.15000
C2186       C  0.03003897  0.16588784  0.32851389    -0.23900
H2187       H  0.98808852  0.07177835  0.43088366     0.05300
H2188       H  0.95572732  0.06869358  0.40544271     0.08500
H2189       H  0.95684398  0.09814383  0.43498463     0.08500
H2190       H  0.04408900  0.15230931  0.31216760     0.08500
H2191       H  0.04481826  0.18295883  0.34046650     0.08500
H2192       H  0.01267973  0.17869048  0.31486695     0.05200
C2193       C  0.10766903  0.02124761  0.35304611    -0.20600
C2194       C  0.12504013  0.03637145  0.37566262    -0.07100
C2195       C  0.14246110  0.01878038  0.39674959     0.13700
C2196       C  0.14188709  0.98661082  0.39470179    -0.20600
C2197       C  0.12457691  0.97144729  0.37206980    -0.07100
C2198       C  0.10700472  0.98904065  0.35106327     0.13700
C2199       C  0.08663190  0.97416872  0.32725442    -0.24000
H2200       H  0.09417338  0.03476584  0.33703224     0.15000
H2201       H  0.15546866  0.97314846  0.41069366     0.15000
C2202       C  0.16262453  0.03365442  0.42073501    -0.23900
H2203       H  0.07303318  0.99144194  0.31429345     0.05300
H2204       H  0.07023335  0.95821880  0.33859869     0.08500
H2205       H  0.10078316  0.96139306  0.31035264     0.08500
H2206       H  0.14831193  0.04641840  0.43750315     0.08500
H2207       H  0.17911818  0.04962231  0.40954796     0.08500
H2208       H  0.17611266  0.01638983  0.43382455     0.05200
loop_ 
_geom_bond_atom_site_label_1 
_geom_bond_atom_site_label_2 
_geom_bond_distance 
_geom_bond_site_symmetry_2 
_ccdc_geom_bond_type 
O1           Ni9   1.917       .  S
O1           C11   1.282       .  A
O2           Ni9   1.916       .  S
O2           C12   1.280       .  A
O3           Ni9   1.917       .  S
O3           C13   1.281       .  A
O4           Ni9   1.916       .  S
O4           C14   1.281       .  A
O5          Ni10   1.917       .  S
O5           C14   1.281       .  A
O6          Ni10   1.918       .  S
O6           C13   1.282       .  A
O7          Ni10   1.918       .  S
O7           C12   1.282       .  A
O8          Ni10   1.920       .  S
O8           C11   1.281       .  A
Ni9         Ni10   2.386       .  S
C11        C2178   1.484       .  S
C12        C2146   1.478       .  S
C13        C2162   1.484       .  S
C14        C2194   1.480       .  S
O15         Ni23   1.915       .  S
O15          C25   1.282       .  A
O16         Ni23   1.918       .  S
O16          C26   1.281       .  A
O17         Ni23   1.914       .  S
O17          C27   1.280       .  A
O18         Ni23   1.916       .  S
O18          C28   1.280       .  A
O19         Ni24   1.916       .  S
O19          C28   1.282       .  A
O20         Ni24   1.920       .  S
O20          C27   1.282       .  A
O21         Ni24   1.911       .  S
O21          C26   1.280       .  A
O22         Ni24   1.913       .  S
O22          C25   1.280       .  A
Ni23        Ni24   2.387       .  S
C25        C2133   1.480       .  S
C26        C2114   1.475       .  S
C27        C2101   1.481       .  S
C28        C2197   1.482       .  S
O29         Ni37   1.920       .  S
O29          C39   1.282       .  A
O30         Ni37   1.917       .  S
O30          C40   1.281       .  A
O31         Ni37   1.917       .  S
O31          C41   1.281       .  A
O32         Ni37   1.917       .  S
O32          C42   1.281       .  A
O33         Ni38   1.919       .  S
O33          C42   1.281       .  A
O34         Ni38   1.916       .  S
O34          C41   1.281       .  A
O35         Ni38   1.917       .  S
O35          C40   1.282       .  A
O36         Ni38   1.916       .  S
O36          C39   1.280       .  A
Ni37        Ni38   2.387       .  S
C39        C2053   1.480       .  S
C40        C2085   1.486       .  S
C41        C2066   1.477       .  S
C42        C2181   1.483       .  S
O43         Ni51   1.910       .  S
O43          C53   1.279       .  A
O44         Ni51   1.913       .  S
O44          C54   1.282       .  A
O45         Ni51   1.921       .  S
O45          C55   1.283       .  A
O46         Ni51   1.921       .  S
O46          C56   1.281       .  A
O47         Ni52   1.914       .  S
O47          C56   1.280       .  A
O48         Ni52   1.914       .  S
O48          C55   1.280       .  A
O49         Ni52   1.916       .  S
O49          C54   1.280       .  A
O50         Ni52   1.919       .  S
O50          C53   1.282       .  A
Ni51        Ni52   2.385       .  S
C53        C2130   1.482       .  S
C54        C2018   1.490       .  S
C55        C2082   1.485       .  S
C56        C2034   1.476       .  S
O57         Ni65   1.919       .  S
O57          C67   1.281       .  A
O58         Ni65   1.916       .  S
O58          C68   1.281       .  A
O59         Ni65   1.921       .  S
O59          C69   1.282       .  A
O60         Ni65   1.926       .  S
O60          C70   1.284       .  A
O61         Ni66   1.908       .  S
O61          C70   1.278       .  A
O62         Ni66   1.912       .  S
O62          C69   1.280       .  A
O63         Ni66   1.919       .  S
O63          C68   1.281       .  A
O64         Ni66   1.919       .  S
O64          C67   1.281       .  A
Ni65        Ni66   2.385       .  S
C67        C1986   1.480       .  S
C68        C2165   1.477       .  S
C69        C2002   1.484       .  S
C70        C1970   1.493       .  S
O71         Ni79   1.917       .  S
O71          C81   1.281       .  A
O72         Ni79   1.919       .  S
O72          C82   1.283       .  A
O73         Ni79   1.918       .  S
O73          C83   1.281       .  A
O74         Ni79   1.916       .  S
O74          C84   1.281       .  A
O75         Ni80   1.920       .  S
O75          C84   1.281       .  A
O76         Ni80   1.918       .  S
O76          C83   1.282       .  A
O77         Ni80   1.915       .  S
O77          C82   1.280       .  A
O78         Ni80   1.917       .  S
O78          C81   1.282       .  A
Ni79        Ni80   2.386       .  S
C81        C1941   1.482       .  S
C82        C2005   1.485       .  S
C83        C1954   1.485       .  S
C84        C1922   1.482       .  S
O85         Ni93   1.918       .  S
O85          C95   1.281       .  A
O86         Ni93   1.919       .  S
O86          C96   1.281       .  A
O87         Ni93   1.914       .  S
O87          C97   1.280       .  A
O88         Ni93   1.914       .  S
O88          C98   1.282       .  A
O89         Ni94   1.913       .  S
O89          C98   1.280       .  A
O90         Ni94   1.912       .  S
O90          C97   1.282       .  A
O91         Ni94   1.917       .  S
O91          C96   1.281       .  A
O92         Ni94   1.918       .  S
O92          C95   1.281       .  A
Ni93        Ni94   2.385       .  S
C95        C2098   1.480       .  S
C96        C1989   1.478       .  S
C97        C1906   1.492       .  S
C98        C1890   1.480       .  S
O99        Ni107   1.916       .  S
O99         C109   1.281       .  A
O100       Ni107   1.916       .  S
O100        C110   1.280       .  A
O101       Ni107   1.912       .  S
O101        C111   1.280       .  A
O102       Ni107   1.915       .  S
O102        C112   1.282       .  A
O103       Ni108   1.910       .  S
O103        C112   1.279       .  A
O104       Ni108   1.913       .  S
O104        C111   1.280       .  A
O105       Ni108   1.920       .  S
O105        C110   1.282       .  A
O106       Ni108   1.917       .  S
O106        C109   1.280       .  A
Ni107      Ni108   2.385       .  S
C109       C1874   1.475       .  S
C110       C1957   1.487       .  S
C111       C1858   1.473       .  S
C112       C1909   1.492       .  S
O113       Ni121   1.915       .  S
O113        C123   1.280       .  A
O114       Ni121   1.914       .  S
O114        C124   1.282       .  A
O115       Ni121   1.920       .  S
O115        C125   1.282       .  A
O116       Ni121   1.919       .  S
O116        C126   1.282       .  A
O117       Ni122   1.911       .  S
O117        C126   1.279       .  A
O118       Ni122   1.911       .  S
O118        C125   1.279       .  A
O119       Ni122   1.917       .  S
O119        C124   1.281       .  A
O120       Ni122   1.912       .  S
O120        C123   1.282       .  A
Ni121      Ni122   2.385       .  S
C123       C1842   1.483       .  S
C124       C1813   1.489       .  S
C125       C2069   1.479       .  S
C126       C1826   1.481       .  S
O127       Ni135   1.919       .  S
O127        C137   1.282       .  A
O128       Ni135   1.921       .  S
O128        C138   1.283       .  A
O129       Ni135   1.911       .  S
O129        C139   1.281       .  A
O130       Ni135   1.912       .  S
O130        C140   1.279       .  A
O131       Ni136   1.914       .  S
O131        C140   1.282       .  A
O132       Ni136   1.914       .  S
O132        C139   1.280       .  A
O133       Ni136   1.907       .  S
O133        C138   1.279       .  A
O134       Ni136   1.908       .  S
O134        C137   1.279       .  A
Ni135      Ni136   2.384       .  S
C137       C1778   1.477       .  S
C138       C1845   1.485       .  S
C139       C1762   1.481       .  S
C140       C1794   1.488       .  S
O141       Ni149   1.919       .  S
O141        C151   1.282       .  A
O142       Ni149   1.916       .  S
O142        C152   1.281       .  A
O143       Ni149   1.912       .  S
O143        C153   1.280       .  A
O144       Ni149   1.909       .  S
O144        C154   1.279       .  A
O145       Ni150   1.919       .  S
O145        C154   1.283       .  A
O146       Ni150   1.916       .  S
O146        C153   1.281       .  A
O147       Ni150   1.914       .  S
O147        C152   1.280       .  A
O148       Ni150   1.915       .  S
O148        C151   1.280       .  A
Ni149      Ni150   2.386       .  S
C151       C2149   1.480       .  S
C152       C1829   1.479       .  S
C153       C1730   1.475       .  S
C154       C1746   1.489       .  S
O155       Ni163   1.917       .  S
O155        C165   1.281       .  A
O156       Ni163   1.918       .  S
O156        C166   1.283       .  A
O157       Ni163   1.913       .  S
O157        C167   1.280       .  A
O158       Ni163   1.915       .  S
O158        C168   1.280       .  A
O159       Ni164   1.911       .  S
O159        C168   1.282       .  A
O160       Ni164   1.914       .  S
O160        C167   1.280       .  A
O161       Ni164   1.911       .  S
O161        C166   1.279       .  A
O162       Ni164   1.912       .  S
O162        C165   1.280       .  A
Ni163      Ni164   2.385       .  S
C165       C1714   1.475       .  S
C166       C1797   1.490       .  S
C167       C1698   1.477       .  S
C168       C1749   1.489       .  S
O169       Ni177   1.915       .  S
O169        C179   1.281       .  A
O170       Ni177   1.919       .  S
O170        C180   1.281       .  A
O171       Ni177   1.915       .  S
O171        C181   1.282       .  A
O172       Ni177   1.917       .  S
O172        C182   1.281       .  A
O173       Ni178   1.908       .  S
O173        C182   1.279       .  A
O174       Ni178   1.913       .  S
O174        C181   1.280       .  A
O175       Ni178   1.916       .  S
O175        C180   1.281       .  A
O176       Ni178   1.919       .  S
O176        C179   1.281       .  A
Ni177      Ni178   2.388       .  S
C179       C2037   1.482       .  S
C180       C1666   1.480       .  S
C181       C1682   1.485       .  S
C182       C1653   1.470       .  S
O183       Ni191   1.915       .  S
O183        C193   1.280       .  A
O184       Ni191   1.918       .  S
O184        C194   1.283       .  A
O185       Ni191   1.915       .  S
O185        C195   1.280       .  A
O186       Ni191   1.914       .  S
O186        C196   1.280       .  A
O187       Ni192   1.915       .  S
O187        C196   1.282       .  A
O188       Ni192   1.918       .  S
O188        C195   1.281       .  A
O189       Ni192   1.912       .  S
O189        C194   1.279       .  A
O190       Ni192   1.915       .  S
O190        C193   1.281       .  A
Ni191      Ni192   2.385       .  S
C193       C1602   1.480       .  S
C194       C1634   1.490       .  S
C195       C1618   1.476       .  S
C196       C1685   1.488       .  S
O197       Ni205   1.917       .  S
O197        C207   1.281       .  A
O198       Ni205   1.918       .  S
O198        C208   1.281       .  A
O199       Ni205   1.917       .  S
O199        C209   1.281       .  A
O200       Ni205   1.917       .  S
O200        C210   1.281       .  A
O201       Ni206   1.914       .  S
O201        C210   1.281       .  A
O202       Ni206   1.909       .  S
O202        C209   1.279       .  A
O203       Ni206   1.916       .  S
O203        C208   1.281       .  A
O204       Ni206   1.918       .  S
O204        C207   1.281       .  A
Ni205      Ni206   2.388       .  S
C207       C2050   1.479       .  S
C208       C1669   1.479       .  S
C209       C1570   1.474       .  S
C210       C1586   1.484       .  S
O211       Ni219   1.917       .  S
O211        C221   1.281       .  A
O212       Ni219   1.917       .  S
O212        C222   1.281       .  A
O213       Ni219   1.916       .  S
O213        C223   1.282       .  A
O214       Ni219   1.913       .  S
O214        C224   1.280       .  A
O215       Ni220   1.914       .  S
O215        C224   1.281       .  A
O216       Ni220   1.912       .  S
O216        C223   1.279       .  A
O217       Ni220   1.916       .  S
O217        C222   1.281       .  A
O218       Ni220   1.916       .  S
O218        C221   1.281       .  A
Ni219      Ni220   2.387       .  S
C221       C1538   1.477       .  S
C222       C1589   1.483       .  S
C223       C1637   1.489       .  S
C224       C1557   1.472       .  S
O225       Ni233   1.917       .  S
O225        C235   1.281       .  A
O226       Ni233   1.919       .  S
O226        C236   1.283       .  A
O227       Ni233   1.921       .  S
O227        C237   1.282       .  A
O228       Ni233   1.917       .  S
O228        C238   1.281       .  A
O229       Ni234   1.914       .  S
O229        C238   1.281       .  A
O230       Ni234   1.914       .  S
O230        C237   1.280       .  A
O231       Ni234   1.912       .  S
O231        C236   1.279       .  A
O232       Ni234   1.912       .  S
O232        C235   1.280       .  A
Ni233      Ni234   2.384       .  S
C235       C2117   1.476       .  S
C236       C1506   1.492       .  S
C237       C1490   1.485       .  S
C238       C1522   1.484       .  S
O239       Ni247   1.910       .  S
O239        C249   1.279       .  A
O240       Ni247   1.908       .  S
O240        C250   1.279       .  A
O241       Ni247   1.917       .  S
O241        C251   1.281       .  A
O242       Ni247   1.918       .  S
O242        C252   1.281       .  A
O243       Ni248   1.912       .  S
O243        C252   1.281       .  A
O244       Ni248   1.916       .  S
O244        C251   1.280       .  A
O245       Ni248   1.921       .  S
O245        C250   1.283       .  A
O246       Ni248   1.919       .  S
O246        C249   1.281       .  A
Ni247      Ni248   2.387       .  S
C249       C1442   1.474       .  S
C250       C1477   1.482       .  S
C251       C1458   1.479       .  S
C252       C1525   1.482       .  S
O253       Ni261   1.914       .  S
O253        C263   1.280       .  A
O254       Ni261   1.914       .  S
O254        C264   1.280       .  A
O255       Ni261   1.915       .  S
O255        C265   1.280       .  A
O256       Ni261   1.913       .  S
O256        C266   1.282       .  A
O257       Ni262   1.915       .  S
O257        C266   1.280       .  A
O258       Ni262   1.912       .  S
O258        C265   1.281       .  A
O259       Ni262   1.915       .  S
O259        C264   1.282       .  A
O260       Ni262   1.918       .  S
O260        C263   1.282       .  A
Ni261      Ni262   2.387       .  S
C263       C1394   1.479       .  S
C264       C1426   1.485       .  S
C265       C1410   1.475       .  S
C266       C1474   1.482       .  S
O267       Ni275   1.912       .  S
O267        C277   1.281       .  A
O268       Ni275   1.916       .  S
O268        C278   1.280       .  A
O269       Ni275   1.915       .  S
O269        C279   1.280       .  A
O270       Ni275   1.914       .  S
O270        C280   1.282       .  A
O271       Ni276   1.916       .  S
O271        C280   1.280       .  A
O272       Ni276   1.912       .  S
O272        C279   1.279       .  A
O273       Ni276   1.915       .  S
O273        C278   1.281       .  A
O274       Ni276   1.917       .  S
O274        C277   1.281       .  A
Ni275      Ni276   2.386       .  S
C277       C1429   1.486       .  S
C278       C1378   1.479       .  S
C279       C2021   1.465       .  S
C280       C1509   1.491       .  S
O281       Ni289   1.913       .  S
O281        C291   1.280       .  A
O282       Ni289   1.916       .  S
O282        C292   1.280       .  A
O283       Ni289   1.915       .  S
O283        C293   1.280       .  A
O284       Ni289   1.916       .  S
O284        C294   1.281       .  A
O285       Ni290   1.912       .  S
O285        C294   1.280       .  A
O286       Ni290   1.916       .  S
O286        C293   1.283       .  A
O287       Ni290   1.918       .  S
O287        C292   1.281       .  A
O288       Ni290   1.921       .  S
O288        C291   1.282       .  A
Ni289      Ni290   2.386       .  S
C291       C1877   1.482       .  S
C292       C1362   1.478       .  S
C293       C1349   1.494       .  S
C294       C1445   1.476       .  S
O295       Ni303   1.915       .  S
O295        C305   1.282       .  A
O296       Ni303   1.916       .  S
O296        C306   1.281       .  A
O297       Ni303   1.921       .  S
O297        C307   1.282       .  A
O298       Ni303   1.918       .  S
O298        C308   1.281       .  A
O299       Ni304   1.914       .  S
O299        C308   1.281       .  A
O300       Ni304   1.916       .  S
O300        C307   1.280       .  A
O301       Ni304   1.914       .  S
O301        C306   1.280       .  A
O302       Ni304   1.911       .  S
O302        C305   1.279       .  A
Ni303      Ni304   2.386       .  S
C305       C1330   1.489       .  S
C306       C1717   1.478       .  S
C307       C1925   1.478       .  S
C308       C1365   1.478       .  S
O309       Ni317   1.912       .  S
O309        C319   1.280       .  A
O310       Ni317   1.913       .  S
O310        C320   1.279       .  A
O311       Ni317   1.918       .  S
O311        C321   1.281       .  A
O312       Ni317   1.916       .  S
O312        C322   1.280       .  A
O313       Ni318   1.912       .  S
O313        C322   1.282       .  A
O314       Ni318   1.909       .  S
O314        C321   1.280       .  A
O315       Ni318   1.913       .  S
O315        C320   1.282       .  A
O316       Ni318   1.910       .  S
O316        C319   1.279       .  A
Ni317      Ni318   2.385       .  S
C319       C1765   1.466       .  S
C320       C1333   1.490       .  S
C321       C1554   1.475       .  S
C322       C1314   1.494       .  S
O323       Ni331   1.912       .  S
O323        C333   1.279       .  A
O324       Ni331   1.913       .  S
O324        C334   1.280       .  A
O325       Ni331   1.913       .  S
O325        C335   1.280       .  A
O326       Ni331   1.916       .  S
O326        C336   1.280       .  A
O327       Ni332   1.913       .  S
O327        C336   1.280       .  A
O328       Ni332   1.915       .  S
O328        C335   1.282       .  A
O329       Ni332   1.914       .  S
O329        C334   1.280       .  A
O330       Ni332   1.918       .  S
O330        C333   1.283       .  A
Ni331      Ni332   2.384       .  S
C333       C1346   1.493       .  S
C334       C1413   1.474       .  S
C335       C1317   1.494       .  S
C336       C1605   1.473       .  S
O337       Ni345   1.915       .  S
O337        C347   1.281       .  A
O338       Ni345   1.916       .  S
O338        C348   1.282       .  A
O339       Ni345   1.914       .  S
O339        C349   1.282       .  A
O340       Ni345   1.914       .  S
O340        C350   1.280       .  A
O341       Ni346   1.917       .  S
O341        C350   1.281       .  A
O342       Ni346   1.916       .  S
O342        C349   1.280       .  A
O343       Ni346   1.911       .  S
O343        C348   1.279       .  A
O344       Ni346   1.916       .  S
O344        C347   1.280       .  A
Ni345      Ni346   2.383       .  S
C347       C1266   1.483       .  S
C348       C1282   1.490       .  S
C349       C1301   1.491       .  S
C350       C1733   1.478       .  S
O351       Ni359   1.914       .  S
O351        C361   1.282       .  A
O352       Ni359   1.914       .  S
O352        C362   1.280       .  A
O353       Ni359   1.915       .  S
O353        C363   1.281       .  A
O354       Ni359   1.917       .  S
O354        C364   1.281       .  A
O355       Ni360   1.913       .  S
O355        C364   1.280       .  A
O356       Ni360   1.917       .  S
O356        C363   1.281       .  A
O357       Ni360   1.912       .  S
O357        C362   1.280       .  A
O358       Ni360   1.914       .  S
O358        C361   1.280       .  A
Ni359      Ni360   2.388       .  S
C361       C1298   1.490       .  S
C362       C1701   1.470       .  S
C363       C1250   1.480       .  S
C364       C1234   1.474       .  S
O365       Ni373   1.917       .  S
O365        C375   1.282       .  A
O366       Ni373   1.918       .  S
O366        C376   1.281       .  A
O367       Ni373   1.914       .  S
O367        C377   1.282       .  A
O368       Ni373   1.915       .  S
O368        C378   1.280       .  A
O369       Ni374   1.917       .  S
O369        C378   1.281       .  A
O370       Ni374   1.917       .  S
O370        C377   1.281       .  A
O371       Ni374   1.914       .  S
O371        C376   1.280       .  A
O372       Ni374   1.918       .  S
O372        C375   1.281       .  A
Ni373      Ni374   2.386       .  S
C375       C1205   1.483       .  S
C376       C1253   1.480       .  S
C377       C1218   1.487       .  S
C378       C1461   1.478       .  S
O379       Ni387   1.917       .  S
O379        C389   1.282       .  A
O380       Ni387   1.916       .  S
O380        C390   1.280       .  A
O381       Ni387   1.909       .  S
O381        C391   1.281       .  A
O382       Ni387   1.913       .  S
O382        C392   1.280       .  A
O383       Ni388   1.916       .  S
O383        C392   1.281       .  A
O384       Ni388   1.918       .  S
O384        C391   1.281       .  A
O385       Ni388   1.917       .  S
O385        C390   1.281       .  A
O386       Ni388   1.914       .  S
O386        C389   1.280       .  A
Ni387      Ni388   2.386       .  S
C389       C1221   1.486       .  S
C390       C1493   1.474       .  S
C391       C1285   1.489       .  S
C392       C1189   1.476       .  S
O393       Ni401   1.911       .  S
O393        C403   1.280       .  A
O394       Ni401   1.910       .  S
O394        C404   1.279       .  A
O395       Ni401   1.916       .  S
O395        C405   1.281       .  A
O396       Ni401   1.918       .  S
O396        C406   1.281       .  A
O397       Ni402   1.912       .  S
O397        C406   1.279       .  A
O398       Ni402   1.909       .  S
O398        C405   1.280       .  A
O399       Ni402   1.919       .  S
O399        C404   1.283       .  A
O400       Ni402   1.915       .  S
O400        C403   1.280       .  A
Ni401      Ni402   2.386       .  S
C403       C1573   1.475       .  S
C404       C1170   1.489       .  S
C405       C1154   1.484       .  S
C406       C1138   1.474       .  S
O407       Ni415   1.918       .  S
O407        C417   1.282       .  A
O408       Ni415   1.920       .  S
O408        C418   1.281       .  A
O409       Ni415   1.918       .  S
O409        C419   1.281       .  A
O410       Ni415   1.916       .  S
O410        C420   1.282       .  A
O411       Ni416   1.915       .  S
O411        C420   1.280       .  A
O412       Ni416   1.915       .  S
O412        C419   1.280       .  A
O413       Ni416   1.915       .  S
O413        C418   1.281       .  A
O414       Ni416   1.916       .  S
O414        C417   1.280       .  A
Ni415      Ni416   2.385       .  S
C417       C1122   1.486       .  S
C418       C1106   1.482       .  S
C419       C1541   1.478       .  S
C420       C1173   1.491       .  S
O421       Ni429   1.914       .  S
O421        C431   1.281       .  A
O422       Ni429   1.916       .  S
O422        C432   1.280       .  A
O423       Ni429   1.913       .  S
O423        C433   1.282       .  A
O424       Ni429   1.914       .  S
O424        C434   1.280       .  A
O425       Ni430   1.912       .  S
O425        C434   1.281       .  A
O426       Ni430   1.911       .  S
O426        C433   1.279       .  A
O427       Ni430   1.914       .  S
O427        C432   1.280       .  A
O428       Ni430   1.918       .  S
O428        C431   1.281       .  A
Ni429      Ni430   2.388       .  S
C431       C1090   1.484       .  S
C432       C1973   1.467       .  S
C433       C1157   1.482       .  S
C434       C1074   1.474       .  S
O435       Ni443   1.917       .  S
O435        C445   1.281       .  A
O436       Ni443   1.915       .  S
O436        C446   1.282       .  A
O437       Ni443   1.910       .  S
O437        C447   1.280       .  A
O438       Ni443   1.912       .  S
O438        C448   1.280       .  A
O439       Ni444   1.921       .  S
O439        C448   1.282       .  A
O440       Ni444   1.921       .  S
O440        C447   1.282       .  A
O441       Ni444   1.915       .  S
O441        C446   1.280       .  A
O442       Ni444   1.915       .  S
O442        C445   1.281       .  A
Ni443      Ni444   2.387       .  S
C445       C1061   1.478       .  S
C446       C1125   1.484       .  S
C447       C1093   1.482       .  S
C448       C1938   1.476       .  S
O449       Ni457   1.921       .  S
O449        C459   1.282       .  A
O450       Ni457   1.918       .  S
O450        C460   1.282       .  A
O451       Ni457   1.917       .  S
O451        C461   1.281       .  A
O452       Ni457   1.915       .  S
O452        C462   1.280       .  A
O453       Ni458   1.918       .  S
O453        C462   1.282       .  A
O454       Ni458   1.916       .  S
O454        C461   1.281       .  A
O455       Ni458   1.917       .  S
O455        C460   1.281       .  A
O456       Ni458   1.914       .  S
O456        C459   1.281       .  A
Ni457      Ni458   2.387       .  S
C459       C1010   1.478       .  S
C460       C1026   1.484       .  S
C461       C1381   1.477       .  S
C462       C1042   1.484       .  S
O463       Ni471   1.913       .  S
O463        C473   1.280       .  A
O464       Ni471   1.910       .  S
O464        C474   1.280       .  A
O465       Ni471   1.919       .  S
O465        C475   1.282       .  A
O466       Ni471   1.916       .  S
O466        C476   1.281       .  A
O467       Ni472   1.917       .  S
O467        C476   1.281       .  A
O468       Ni472   1.915       .  S
O468        C475   1.280       .  A
O469       Ni472   1.920       .  S
O469        C474   1.282       .  A
O470       Ni472   1.920       .  S
O470        C473   1.282       .  A
Ni471      Ni472   2.386       .  S
C473        C978   1.479       .  S
C474        C994   1.486       .  S
C475       C1045   1.484       .  S
C476       C1397   1.478       .  S
O477       Ni485   1.917       .  S
O477        C487   1.281       .  A
O478       Ni485   1.914       .  S
O478        C488   1.280       .  A
O479       Ni485   1.912       .  S
O479        C489   1.279       .  A
O480       Ni485   1.912       .  S
O480        C490   1.281       .  A
O481       Ni486   1.921       .  S
O481        C490   1.282       .  A
O482       Ni486   1.916       .  S
O482        C489   1.281       .  A
O483       Ni486   1.914       .  S
O483        C488   1.281       .  A
O484       Ni486   1.913       .  S
O484        C487   1.280       .  A
Ni485      Ni486   2.386       .  S
C487        C949   1.476       .  S
C488        C997   1.487       .  S
C489       C1781   1.474       .  S
C490        C962   1.490       .  S
O491       Ni499   1.915       .  S
O491        C501   1.280       .  A
O492       Ni499   1.912       .  S
O492        C502   1.279       .  A
O493       Ni499   1.918       .  S
O493        C503   1.281       .  A
O494       Ni499   1.915       .  S
O494        C504   1.280       .  A
O495       Ni500   1.915       .  S
O495        C504   1.279       .  A
O496       Ni500   1.915       .  S
O496        C503   1.282       .  A
O497       Ni500   1.923       .  S
O497        C502   1.283       .  A
O498       Ni500   1.919       .  S
O498        C501   1.282       .  A
Ni499      Ni500   2.387       .  S
C501        C930   1.477       .  S
C502       C1029   1.483       .  S
C503        C965   1.491       .  S
C504       C1810   1.468       .  S
O505       Ni513   1.912       .  S
O505        C515   1.279       .  A
O506       Ni513   1.915       .  S
O506        C516   1.280       .  A
O507       Ni513   1.916       .  S
O507        C517   1.281       .  A
O508       Ni513   1.911       .  S
O508        C518   1.279       .  A
O509       Ni514   1.918       .  S
O509        C518   1.282       .  A
O510       Ni514   1.917       .  S
O510        C517   1.281       .  A
O511       Ni514   1.913       .  S
O511        C516   1.280       .  A
O512       Ni514   1.914       .  S
O512        C515   1.282       .  A
Ni513      Ni514   2.386       .  S
C515        C914   1.491       .  S
C516       C1893   1.472       .  S
C517        C901   1.483       .  S
C518        C882   1.481       .  S
O519       Ni527   1.916       .  S
O519        C529   1.281       .  A
O520       Ni527   1.918       .  S
O520        C530   1.283       .  A
O521       Ni527   1.907       .  S
O521        C531   1.278       .  A
O522       Ni527   1.910       .  S
O522        C532   1.280       .  A
O523       Ni528   1.916       .  S
O523        C532   1.281       .  A
O524       Ni528   1.919       .  S
O524        C531   1.283       .  A
O525       Ni528   1.910       .  S
O525        C530   1.279       .  A
O526       Ni528   1.912       .  S
O526        C529   1.279       .  A
Ni527      Ni528   2.385       .  S
C529        C850   1.471       .  S
C530        C869   1.488       .  S
C531        C917   1.491       .  S
C532       C1861   1.475       .  S
O533       Ni541   1.915       .  S
O533        C543   1.282       .  A
O534       Ni541   1.918       .  S
O534        C544   1.281       .  A
O535       Ni541   1.918       .  S
O535        C545   1.282       .  A
O536       Ni541   1.914       .  S
O536        C546   1.280       .  A
O537       Ni542   1.915       .  S
O537        C546   1.282       .  A
O538       Ni542   1.914       .  S
O538        C545   1.280       .  A
O539       Ni542   1.912       .  S
O539        C544   1.281       .  A
O540       Ni542   1.913       .  S
O540        C543   1.279       .  A
Ni541      Ni542   2.385       .  S
C543        C866   1.489       .  S
C544        C818   1.478       .  S
C545       C1621   1.480       .  S
C546        C834   1.487       .  S
O547       Ni555   1.913       .  S
O547        C557   1.280       .  A
O548       Ni555   1.911       .  S
O548        C558   1.281       .  A
O549       Ni555   1.917       .  S
O549        C559   1.282       .  A
O550       Ni555   1.915       .  S
O550        C560   1.280       .  A
O551       Ni556   1.914       .  S
O551        C560   1.280       .  A
O552       Ni556   1.917       .  S
O552        C559   1.280       .  A
O553       Ni556   1.918       .  S
O553        C558   1.281       .  A
O554       Ni556   1.914       .  S
O554        C557   1.281       .  A
Ni555      Ni556   2.386       .  S
C557       C1650   1.480       .  S
C558        C837   1.487       .  S
C559        C898   1.484       .  S
C560        C802   1.473       .  S
O561       Ni569   1.916       .  S
O561        C571   1.280       .  A
O562       Ni569   1.917       .  S
O562        C572   1.281       .  A
O563       Ni569   1.914       .  S
O563        C573   1.280       .  A
O564       Ni569   1.914       .  S
O564        C574   1.279       .  A
O565       Ni570   1.916       .  S
O565        C574   1.283       .  A
O566       Ni570   1.914       .  S
O566        C573   1.280       .  A
O567       Ni570   1.911       .  S
O567        C572   1.280       .  A
O568       Ni570   1.915       .  S
O568        C571   1.282       .  A
Ni569      Ni570   2.385       .  S
C571        C770   1.490       .  S
C572       C1077   1.477       .  S
C573       C1269   1.470       .  S
C574        C786   1.491       .  S
O575       Ni583   1.919       .  S
O575        C585   1.281       .  A
O576       Ni583   1.917       .  S
O576        C586   1.281       .  A
O577       Ni583   1.918       .  S
O577        C587   1.281       .  A
O578       Ni583   1.916       .  S
O578        C588   1.280       .  A
O579       Ni584   1.912       .  S
O579        C588   1.282       .  A
O580       Ni584   1.911       .  S
O580        C587   1.279       .  A
O581       Ni584   1.913       .  S
O581        C586   1.281       .  A
O582       Ni584   1.910       .  S
O582        C585   1.280       .  A
Ni583      Ni584   2.385       .  S
C585       C1186   1.478       .  S
C586        C789   1.491       .  S
C587        C885   1.471       .  S
C588        C754   1.490       .  S
O589       Ni597   1.917       .  S
O589        C599   1.282       .  A
O590       Ni597   1.916       .  S
O590        C600   1.282       .  A
O591       Ni597   1.919       .  S
O591        C601   1.282       .  A
O592       Ni597   1.915       .  S
O592        C602   1.280       .  A
O593       Ni598   1.917       .  S
O593        C602   1.281       .  A
O594       Ni598   1.918       .  S
O594        C601   1.281       .  A
O595       Ni598   1.913       .  S
O595        C600   1.280       .  A
O596       Ni598   1.912       .  S
O596        C599   1.280       .  A
Ni597      Ni598   2.386       .  S
C599        C805   1.479       .  S
C600        C757   1.489       .  S
C601       C1013   1.484       .  S
C602        C738   1.476       .  S
O603       Ni611   1.913       .  S
O603        C613   1.280       .  A
O604       Ni611   1.916       .  S
O604        C614   1.283       .  A
O605       Ni611   1.918       .  S
O605        C615   1.282       .  A
O606       Ni611   1.915       .  S
O606        C616   1.280       .  A
O607       Ni612   1.916       .  S
O607        C616   1.281       .  A
O608       Ni612   1.914       .  S
O608        C615   1.280       .  A
O609       Ni612   1.914       .  S
O609        C614   1.280       .  A
O610       Ni612   1.917       .  S
O610        C613   1.281       .  A
Ni611      Ni612   2.386       .  S
C613       C1141   1.479       .  S
C614        C773   1.491       .  S
C615        C933   1.481       .  S
C616        C741   1.476       .  S
O617       Ni625   1.916       .  S
O617        C627   1.280       .  A
O618       Ni625   1.917       .  S
O618        C628   1.280       .  A
O619       Ni625   1.920       .  S
O619        C629   1.281       .  A
O620       Ni625   1.918       .  S
O620        C630   1.282       .  A
O621       Ni626   1.914       .  S
O621        C630   1.280       .  A
O622       Ni626   1.910       .  S
O622        C629   1.280       .  A
O623       Ni626   1.917       .  S
O623        C628   1.283       .  A
O624       Ni626   1.917       .  S
O624        C627   1.281       .  A
Ni625      Ni626   2.385       .  S
C627       C1202   1.476       .  S
C628        C709   1.492       .  S
C629        C853   1.481       .  S
C630        C722   1.483       .  S
O631       Ni639   1.908       .  S
O631        C641   1.278       .  A
O632       Ni639   1.911       .  S
O632        C642   1.279       .  A
O633       Ni639   1.916       .  S
O633        C643   1.281       .  A
O634       Ni639   1.917       .  S
O634        C644   1.281       .  A
O635       Ni640   1.913       .  S
O635        C644   1.281       .  A
O636       Ni640   1.919       .  S
O636        C643   1.281       .  A
O637       Ni640   1.921       .  S
O637        C642   1.283       .  A
O638       Ni640   1.923       .  S
O638        C641   1.283       .  A
Ni639      Ni640   2.387       .  S
C641        C821   1.476       .  S
C642        C725   1.485       .  S
C643        C981   1.480       .  S
C644        C690   1.483       .  S
O645       Ni653   1.916       .  S
O645        C655   1.280       .  A
O646       Ni653   1.914       .  S
O646        C656   1.281       .  A
O647       Ni653   1.912       .  S
O647        C657   1.280       .  A
O648       Ni653   1.915       .  S
O648        C658   1.281       .  A
O649       Ni654   1.914       .  S
O649        C658   1.281       .  A
O650       Ni654   1.919       .  S
O650        C657   1.282       .  A
O651       Ni654   1.919       .  S
O651        C656   1.281       .  A
O652       Ni654   1.920       .  S
O652        C655   1.282       .  A
Ni653      Ni654   2.387       .  S
C655       C1109   1.478       .  S
C656        C674   1.481       .  S
C657        C946   1.478       .  S
C658        C693   1.483       .  S
O659       Ni667   1.914       .  S
O659        C669   1.280       .  A
O660       Ni667   1.916       .  S
O660        C670   1.282       .  A
O661       Ni667   1.913       .  S
O661        C671   1.280       .  A
O662       Ni667   1.914       .  S
O662        C672   1.280       .  A
O663       Ni668   1.917       .  S
O663        C672   1.281       .  A
O664       Ni668   1.919       .  S
O664        C671   1.281       .  A
O665       Ni668   1.916       .  S
O665        C670   1.280       .  A
O666       Ni668   1.917       .  S
O666        C669   1.281       .  A
Ni667      Ni668   2.386       .  S
C669       C1237   1.480       .  S
C670        C706   1.493       .  S
C671        C677   1.481       .  S
C672       C1058   1.476       .  S
C673        C674   1.404       .  A
C673        C678   1.403       .  A
C673        H680   1.085       .  S
C674        C675   1.415       .  A
C675        C676   1.404       .  A
C675        C682   1.508       .  S
C676        C677   1.404       .  A
C676        H681   1.085       .  S
C677        C678   1.415       .  A
C678        C679   1.508       .  S
C679        H683   1.111       .  S
C679        H684   1.111       .  S
C679        H685   1.109       .  S
C682        H686   1.109       .  S
C682        H687   1.111       .  S
C682        H688   1.111       .  S
C689        C690   1.404       .  A
C689        C694   1.403       .  A
C689        H696   1.083       .  S
C690        C691   1.417       .  A
C691        C692   1.404       .  A
C691        C698   1.508       .  S
C692        C693   1.405       .  A
C692        H697   1.083       .  S
C693        C694   1.416       .  A
C694        C695   1.509       .  S
C695        H699   1.111       .  S
C695        H700   1.109       .  S
C695        H701   1.111       .  S
C698        H702   1.111       .  S
C698        H703   1.109       .  S
C698        H704   1.111       .  S
C705        C706   1.406       .  A
C705        C710   1.404       .  A
C705        H712   1.084       .  S
C706        C707   1.420       .  A
C707        C708   1.404       .  A
C707        C714   1.509       .  S
C708        C709   1.406       .  A
C708        H713   1.084       .  S
C709        C710   1.419       .  A
C710        C711   1.509       .  S
C711        H715   1.111       .  S
C711        H716   1.110       .  S
C711        H717   1.109       .  S
C714        H718   1.111       .  S
C714        H719   1.110       .  S
C714        H720   1.111       .  S
C721        C722   1.403       .  A
C721        C726   1.403       .  A
C721        H728   1.084       .  S
C722        C723   1.417       .  A
C723        C724   1.405       .  A
C723        C730   1.508       .  S
C724        C725   1.405       .  A
C724        H729   1.084       .  S
C725        C726   1.418       .  A
C726        C727   1.509       .  S
C727        H731   1.111       .  S
C727        H732   1.109       .  S
C727        H733   1.111       .  S
C730        H734   1.111       .  S
C730        H735   1.109       .  S
C730        H736   1.111       .  S
C737        C738   1.403       .  A
C737        C742   1.403       .  A
C737        H744   1.084       .  S
C738        C739   1.414       .  A
C739        C740   1.404       .  A
C739        C746   1.508       .  S
C740        C741   1.404       .  A
C740        H745   1.084       .  S
C741        C742   1.414       .  A
C742        C743   1.508       .  S
C743        H747   1.111       .  S
C743        H748   1.110       .  S
C743        H749   1.109       .  S
C746        H750   1.109       .  S
C746        H751   1.111       .  S
C746        H752   1.111       .  S
C753        C754   1.406       .  A
C753        C758   1.402       .  A
C753        H760   1.083       .  S
C754        C755   1.419       .  A
C755        C756   1.404       .  A
C755        C762   1.509       .  S
C756        C757   1.406       .  A
C756        H761   1.084       .  S
C757        C758   1.419       .  A
C758        C759   1.509       .  S
C759        H763   1.111       .  S
C759        H764   1.108       .  S
C759        H765   1.110       .  S
C762        H766   1.110       .  S
C762        H767   1.110       .  S
C762        H768   1.111       .  S
C769        C770   1.408       .  A
C769        C774   1.405       .  A
C769        H776   1.077       .  S
C770        C771   1.417       .  A
C771        C772   1.405       .  A
C771        C778   1.508       .  S
C772        C773   1.408       .  A
C772        H777   1.076       .  S
C773        C774   1.418       .  A
C774        C775   1.509       .  S
C775        H779   1.110       .  S
C775        H780   1.110       .  S
C775        H781   1.111       .  S
C778        H782   1.110       .  S
C778        H783   1.110       .  S
C778        H784   1.110       .  S
C785        C786   1.406       .  A
C785        C790   1.403       .  A
C785        H792   1.083       .  S
C786        C787   1.419       .  A
C787        C788   1.404       .  A
C787        C794   1.509       .  S
C788        C789   1.407       .  A
C788        H793   1.083       .  S
C789        C790   1.418       .  A
C790        C791   1.509       .  S
C791        H795   1.111       .  S
C791        H796   1.110       .  S
C791        H797   1.110       .  S
C794        H798   1.110       .  S
C794        H799   1.108       .  S
C794        H800   1.111       .  S
C801        C802   1.401       .  A
C801        C806   1.403       .  A
C801        H808   1.084       .  S
C802        C803   1.413       .  A
C803        C804   1.403       .  A
C803        C810   1.508       .  S
C804        C805   1.405       .  A
C804        H809   1.084       .  S
C805        C806   1.417       .  A
C806        C807   1.508       .  S
C807        H811   1.111       .  S
C807        H812   1.109       .  S
C807        H813   1.111       .  S
C810        H814   1.109       .  S
C810        H815   1.111       .  S
C810        H816   1.111       .  S
C817        C818   1.403       .  A
C817        C822   1.402       .  A
C817        H824   1.084       .  S
C818        C819   1.416       .  A
C819        C820   1.405       .  A
C819        C826   1.508       .  S
C820        C821   1.403       .  A
C820        H825   1.084       .  S
C821        C822   1.414       .  A
C822        C823   1.508       .  S
C823        H827   1.111       .  S
C823        H828   1.111       .  S
C823        H829   1.109       .  S
C826        H830   1.111       .  S
C826        H831   1.109       .  S
C826        H832   1.111       .  S
C833        C834   1.405       .  A
C833        C838   1.403   1_556  A
C833        H840   1.085       .  S
C834        C835   1.418       .  A
C835        C836   1.403   1_556  A
C835        C842   1.509       .  S
C836        C837   1.405       .  A
C836        H841   1.084       .  S
C837        C838   1.418       .  A
C838        C839   1.509       .  S
C839        H843   1.111       .  S
C839        H844   1.109       .  S
C839        H845   1.111       .  S
C842        H846   1.111       .  S
C842        H847   1.110       .  S
C842        H848   1.111       .  S
C849        C850   1.402       .  A
C849        C854   1.404       .  A
C849        H856   1.085       .  S
C850        C851   1.410       .  A
C851        C852   1.401       .  A
C851        C858   1.508       .  S
C852        C853   1.406       .  A
C852        H857   1.084       .  S
C853        C854   1.417       .  A
C854        C855   1.507       .  S
C855        H859   1.111       .  S
C855        H860   1.110       .  S
C855        H861   1.109       .  S
C858        H862   1.111       .  S
C858        H863   1.110       .  S
C858        H864   1.111       .  S
C865        C866   1.405       .  A
C865        C870   1.402   1_655  A
C865        H872   1.084       .  S
C866        C867   1.419       .  A
C867        C868   1.404   1_655  A
C867        C874   1.509       .  S
C868        C869   1.405       .  A
C868        H873   1.084       .  S
C869        C870   1.419       .  A
C870        C871   1.509       .  S
C871        H875   1.111       .  S
C871        H876   1.110       .  S
C871        H877   1.109       .  S
C874        H878   1.110       .  S
C874        H879   1.110       .  S
C874        H880   1.111       .  S
C881        C882   1.405       .  A
C881        C886   1.402       .  A
C881        H888   1.085       .  S
C882        C883   1.419       .  A
C883        C884   1.403       .  A
C883        C890   1.509       .  S
C884        C885   1.399       .  A
C884        H889   1.086       .  S
C885        C886   1.412       .  A
C886        C887   1.508       .  S
C887        H891   1.111       .  S
C887        H892   1.110       .  S
C887        H893   1.109       .  S
C890        H894   1.111       .  S
C890        H895   1.109       .  S
C890        H896   1.111       .  S
C897        C898   1.404       .  A
C897        C902   1.403   1_655  A
C897        H904   1.084       .  S
C898        C899   1.417       .  A
C899        C900   1.405   1_655  A
C899        C906   1.508       .  S
C900        C901   1.404       .  A
C900        H905   1.084       .  S
C901        C902   1.416       .  A
C902        C903   1.508       .  S
C903        H907   1.111       .  S
C903        H908   1.109       .  S
C903        H909   1.110       .  S
C906        H910   1.111       .  S
C906        H911   1.109       .  S
C906        H912   1.111       .  S
C913        C914   1.406       .  A
C913        C918   1.402   1_554  A
C913        H920   1.082       .  S
C914        C915   1.420       .  A
C915        C916   1.404   1_554  A
C915        C922   1.509       .  S
C916        C917   1.406       .  A
C916        H921   1.082       .  S
C917        C918   1.420       .  A
C918        C919   1.510       .  S
C919        H923   1.111       .  S
C919        H924   1.110       .  S
C919        H925   1.110       .  S
C922        H926   1.110       .  S
C922        H927   1.110       .  S
C922        H928   1.111       .  S
C929        C930   1.402       .  A
C929        C934   1.404       .  A
C929        H936   1.084       .  S
C930        C931   1.414       .  A
C931        C932   1.404       .  A
C931        C938   1.508       .  S
C932        C933   1.404       .  A
C932        H937   1.084       .  S
C933        C934   1.417       .  A
C934        C935   1.508       .  S
C935        H939   1.111       .  S
C935        H940   1.109       .  S
C935        H941   1.111       .  S
C938        H942   1.109       .  S
C938        H943   1.111       .  S
C938        H944   1.111       .  S
C945        C946   1.404       .  A
C945        C950   1.404       .  A
C945        H952   1.084       .  S
C946        C947   1.415       .  A
C947        C948   1.403       .  A
C947        C954   1.508       .  S
C948        C949   1.402       .  A
C948        H953   1.084       .  S
C949        C950   1.414       .  A
C950        C951   1.508       .  S
C951        H955   1.111       .  S
C951        H956   1.109       .  S
C951        H957   1.110       .  S
C954        H958   1.109       .  S
C954        H959   1.110       .  S
C954        H960   1.111       .  S
C961        C962   1.406       .  A
C961        C966   1.404   1_556  A
C961        H968   1.084       .  S
C962        C963   1.418       .  A
C963        C964   1.405   1_556  A
C963        C970   1.508       .  S
C964        C965   1.407       .  A
C964        H969   1.084       .  S
C965        C966   1.418       .  A
C966        C967   1.509       .  S
C967        H971   1.111       .  S
C967        H972   1.110       .  S
C967        H973   1.111       .  S
C970        H974   1.111       .  S
C970        H975   1.110       .  S
C970        H976   1.111       .  S
C977        C978   1.404       .  A
C977        C982   1.406       .  A
C977        H984   1.084       .  S
C978        C979   1.415       .  A
C979        C980   1.403       .  A
C979        C986   1.508       .  S
C980        C981   1.403       .  A
C980        H985   1.084       .  S
C981        C982   1.416       .  A
C982        C983   1.507       .  S
C983        H987   1.111       .  S
C983        H988   1.109       .  S
C983        H989   1.111       .  S
C986        H990   1.109       .  S
C986        H991   1.111       .  S
C986        H992   1.111       .  S
C993        C994   1.405       .  A
C993        C998   1.403   1_565  A
C993       H1000   1.084       .  S
C994        C995   1.417       .  A
C995        C996   1.404   1_565  A
C995       C1002   1.508       .  S
C996        C997   1.406       .  A
C996       H1001   1.084       .  S
C997        C998   1.418       .  A
C998        C999   1.509       .  S
C999       H1003   1.111       .  S
C999       H1004   1.111       .  S
C999       H1005   1.109       .  S
C1002      H1006   1.110       .  S
C1002      H1007   1.111       .  S
C1002      H1008   1.111       .  S
C1009      C1010   1.403       .  A
C1009      C1014   1.404       .  A
C1009      H1016   1.084       .  S
C1010      C1011   1.416       .  A
C1011      C1012   1.404       .  A
C1011      C1018   1.509       .  S
C1012      C1013   1.405       .  A
C1012      H1017   1.084       .  S
C1013      C1014   1.416       .  A
C1014      C1015   1.507       .  S
C1015      H1019   1.111       .  S
C1015      H1020   1.109       .  S
C1015      H1021   1.109       .  S
C1018      H1022   1.110       .  S
C1018      H1023   1.106       .  S
C1018      H1024   1.111       .  S
C1025      C1026   1.403       .  A
C1025      C1030   1.403   1_565  A
C1025      H1032   1.085       .  S
C1026      C1027   1.417       .  A
C1027      C1028   1.405   1_565  A
C1027      C1034   1.508       .  S
C1028      C1029   1.404       .  A
C1028      H1033   1.085       .  S
C1029      C1030   1.417       .  A
C1030      C1031   1.509       .  S
C1031      H1035   1.111       .  S
C1031      H1036   1.109       .  S
C1031      H1037   1.111       .  S
C1034      H1038   1.111       .  S
C1034      H1039   1.109       .  S
C1034      H1040   1.111       .  S
C1041      C1042   1.404       .  A
C1041      C1046   1.404   1_554  A
C1041      H1048   1.084       .  S
C1042      C1043   1.417       .  A
C1043      C1044   1.404   1_554  A
C1043      C1050   1.508       .  S
C1044      C1045   1.404       .  A
C1044      H1049   1.085       .  S
C1045      C1046   1.417       .  A
C1046      C1047   1.508       .  S
C1047      H1051   1.111       .  S
C1047      H1052   1.110       .  S
C1047      H1053   1.109       .  S
C1050      H1054   1.109       .  S
C1050      H1055   1.111       .  S
C1050      H1056   1.111       .  S
C1057      C1058   1.402       .  A
C1057      C1062   1.403       .  A
C1057      H1064   1.084       .  S
C1058      C1059   1.414       .  A
C1059      C1060   1.404       .  A
C1059      C1066   1.508       .  S
C1060      C1061   1.404       .  A
C1060      H1065   1.084       .  S
C1061      C1062   1.415       .  A
C1062      C1063   1.508       .  S
C1063      H1067   1.111       .  S
C1063      H1068   1.111       .  S
C1063      H1069   1.109       .  S
C1066      H1070   1.111       .  S
C1066      H1071   1.109       .  S
C1066      H1072   1.111       .  S
C1073      C1074   1.402       .  A
C1073      C1078   1.401       .  A
C1073      H1080   1.084       .  S
C1074      C1075   1.413       .  A
C1075      C1076   1.404       .  A
C1075      C1082   1.508       .  S
C1076      C1077   1.405       .  A
C1076      H1081   1.083       .  S
C1077      C1078   1.414       .  A
C1078      C1079   1.507       .  S
C1079      H1083   1.111       .  S
C1079      H1084   1.110       .  S
C1079      H1085   1.109       .  S
C1082      H1086   1.111       .  S
C1082      H1087   1.109       .  S
C1082      H1088   1.111       .  S
C1089      C1090   1.405       .  A
C1089      C1094   1.403   1_554  A
C1089      H1096   1.085       .  S
C1090      C1091   1.416       .  A
C1091      C1092   1.404   1_554  A
C1091      C1098   1.508       .  S
C1092      C1093   1.405       .  A
C1092      H1097   1.085       .  S
C1093      C1094   1.415       .  A
C1094      C1095   1.508       .  S
C1095      H1099   1.111       .  S
C1095      H1100   1.109       .  S
C1095      H1101   1.110       .  S
C1098      H1102   1.111       .  S
C1098      H1103   1.109       .  S
C1098      H1104   1.111       .  S
C1105      C1106   1.405       .  A
C1105      C1110   1.404       .  A
C1105      H1112   1.084       .  S
C1106      C1107   1.416       .  A
C1107      C1108   1.405       .  A
C1107      C1114   1.508       .  S
C1108      C1109   1.403       .  A
C1108      H1113   1.083       .  S
C1109      C1110   1.413       .  A
C1110      C1111   1.508       .  S
C1111      H1115   1.111       .  S
C1111      H1116   1.110       .  S
C1111      H1117   1.110       .  S
C1114      H1118   1.111       .  S
C1114      H1119   1.109       .  S
C1114      H1120   1.111       .  S
C1121      C1122   1.405       .  A
C1121      C1126   1.405   1_655  A
C1121      H1128   1.084       .  S
C1122      C1123   1.417       .  A
C1123      C1124   1.403   1_655  A
C1123      C1130   1.508       .  S
C1124      C1125   1.404       .  A
C1124      H1129   1.084       .  S
C1125      C1126   1.417       .  A
C1126      C1127   1.508       .  S
C1127      H1131   1.111       .  S
C1127      H1132   1.109       .  S
C1127      H1133   1.111       .  S
C1130      H1134   1.109       .  S
C1130      H1135   1.109       .  S
C1130      H1136   1.111       .  S
C1137      C1138   1.402       .  A
C1137      C1142   1.404       .  A
C1137      H1144   1.084       .  S
C1138      C1139   1.413       .  A
C1139      C1140   1.403       .  A
C1139      C1146   1.508       .  S
C1140      C1141   1.404       .  A
C1140      H1145   1.083       .  S
C1141      C1142   1.416       .  A
C1142      C1143   1.508       .  S
C1143      H1147   1.111       .  S
C1143      H1148   1.109       .  S
C1143      H1149   1.111       .  S
C1146      H1150   1.109       .  S
C1146      H1151   1.111       .  S
C1146      H1152   1.111       .  S
C1153      C1154   1.406       .  A
C1153      C1158   1.402   1_655  A
C1153      H1160   1.084       .  S
C1154      C1155   1.417       .  A
C1155      C1156   1.402   1_655  A
C1155      C1162   1.508       .  S
C1156      C1157   1.404       .  A
C1156      H1161   1.084       .  S
C1157      C1158   1.417       .  A
C1158      C1159   1.509       .  S
C1159      H1163   1.111       .  S
C1159      H1164   1.111       .  S
C1159      H1165   1.109       .  S
C1162      H1166   1.109       .  S
C1162      H1167   1.111       .  S
C1162      H1168   1.111       .  S
C1169      C1170   1.405       .  A
C1169      C1174   1.404   1_554  A
C1169      H1176   1.084       .  S
C1170      C1171   1.419       .  A
C1171      C1172   1.403   1_554  A
C1171      C1178   1.509       .  S
C1172      C1173   1.406       .  A
C1172      H1177   1.084       .  S
C1173      C1174   1.419       .  A
C1174      C1175   1.508       .  S
C1175      H1179   1.111       .  S
C1175      H1180   1.110       .  S
C1175      H1181   1.108       .  S
C1178      H1182   1.111       .  S
C1178      H1183   1.109       .  S
C1178      H1184   1.111       .  S
C1185      C1186   1.404       .  A
C1185      C1190   1.401       .  A
C1185      H1192   1.084       .  S
C1186      C1187   1.415       .  A
C1187      C1188   1.404       .  A
C1187      C1194   1.508       .  S
C1188      C1189   1.404       .  A
C1188      H1193   1.084       .  S
C1189      C1190   1.413       .  A
C1190      C1191   1.508       .  S
C1191      H1195   1.111       .  S
C1191      H1196   1.109       .  S
C1191      H1197   1.111       .  S
C1194      H1198   1.109       .  S
C1194      H1199   1.111       .  S
C1194      H1200   1.111       .  S
C1201      C1202   1.402       .  A
C1201      C1206   1.405       .  A
C1201      H1208   1.084       .  S
C1202      C1203   1.412       .  A
C1203      C1204   1.403       .  A
C1203      C1210   1.508       .  S
C1204      C1205   1.405       .  A
C1204      H1209   1.084       .  S
C1205      C1206   1.417       .  A
C1206      C1207   1.508       .  S
C1207      H1211   1.111       .  S
C1207      H1212   1.109       .  S
C1207      H1213   1.111       .  S
C1210      H1214   1.109       .  S
C1210      H1215   1.111       .  S
C1210      H1216   1.111       .  S
C1217      C1218   1.405       .  A
C1217      C1222   1.403   1_556  A
C1217      H1224   1.084       .  S
C1218      C1219   1.418       .  A
C1219      C1220   1.405   1_556  A
C1219      C1226   1.508       .  S
C1220      C1221   1.405       .  A
C1220      H1225   1.084       .  S
C1221      C1222   1.418       .  A
C1222      C1223   1.509       .  S
C1223      H1227   1.111       .  S
C1223      H1228   1.110       .  S
C1223      H1229   1.109       .  S
C1226      H1230   1.110       .  S
C1226      H1231   1.111       .  S
C1226      H1232   1.111       .  S
C1233      C1234   1.402       .  A
C1233      C1238   1.403       .  A
C1233      H1240   1.084       .  S
C1234      C1235   1.413       .  A
C1235      C1236   1.404       .  A
C1235      C1242   1.508       .  S
C1236      C1237   1.405       .  A
C1236      H1241   1.084       .  S
C1237      C1238   1.416       .  A
C1238      C1239   1.508       .  S
C1239      H1243   1.111       .  S
C1239      H1244   1.111       .  S
C1239      H1245   1.109       .  S
C1242      H1246   1.111       .  S
C1242      H1247   1.109       .  S
C1242      H1248   1.111       .  S
C1249      C1250   1.404       .  A
C1249      C1254   1.403   1_545  A
C1249      H1256   1.083       .  S
C1250      C1251   1.415       .  A
C1251      C1252   1.405   1_545  A
C1251      C1258   1.508       .  S
C1252      C1253   1.405       .  A
C1252      H1257   1.083       .  S
C1253      C1254   1.415       .  A
C1254      C1255   1.508       .  S
C1255      H1259   1.111       .  S
C1255      H1260   1.109       .  S
C1255      H1261   1.110       .  S
C1258      H1262   1.110       .  S
C1258      H1263   1.109       .  S
C1258      H1264   1.111       .  S
C1265      C1266   1.406       .  A
C1265      C1270   1.402       .  A
C1265      H1272   1.084       .  S
C1266      C1267   1.418       .  A
C1267      C1268   1.404       .  A
C1267      C1274   1.507       .  S
C1268      C1269   1.400       .  A
C1268      H1273   1.084       .  S
C1269      C1270   1.410       .  A
C1270      C1271   1.507       .  S
C1271      H1275   1.111       .  S
C1271      H1276   1.110       .  S
C1271      H1277   1.111       .  S
C1274      H1278   1.109       .  S
C1274      H1279   1.110       .  S
C1274      H1280   1.111       .  S
C1281      C1282   1.407       .  A
C1281      C1286   1.405   1_545  A
C1281      H1288   1.084       .  S
C1282      C1283   1.419       .  A
C1283      C1284   1.401   1_545  A
C1283      C1290   1.510       .  S
C1284      C1285   1.406       .  A
C1284      H1289   1.084       .  S
C1285      C1286   1.418       .  A
C1286      C1287   1.508       .  S
C1287      H1291   1.111       .  S
C1287      H1292   1.111       .  S
C1287      H1293   1.110       .  S
C1290      H1294   1.110       .  S
C1290      H1295   1.108       .  S
C1290      H1296   1.111       .  S
C1297      C1298   1.407       .  A
C1297      C1302   1.404   1_556  A
C1297      H1304   1.084       .  S
C1298      C1299   1.418       .  A
C1299      C1300   1.403   1_556  A
C1299      C1306   1.509       .  S
C1300      C1301   1.406       .  A
C1300      H1305   1.084       .  S
C1301      C1302   1.419       .  A
C1302      C1303   1.509       .  S
C1303      H1307   1.111       .  S
C1303      H1308   1.109       .  S
C1303      H1309   1.110       .  S
C1306      H1310   1.110       .  S
C1306      H1311   1.110       .  S
C1306      H1312   1.111       .  S
C1313      C1314   1.407       .  A
C1313      C1318   1.403   1_545  A
C1313      H1320   1.083       .  S
C1314      C1315   1.419       .  A
C1315      C1316   1.404   1_545  A
C1315      C1322   1.509       .  S
C1316      C1317   1.407       .  A
C1316      H1321   1.083       .  S
C1317      C1318   1.420       .  A
C1318      C1319   1.510       .  S
C1319      H1323   1.111       .  S
C1319      H1324   1.110       .  S
C1319      H1325   1.110       .  S
C1322      H1326   1.110       .  S
C1322      H1327   1.110       .  S
C1322      H1328   1.111       .  S
C1329      C1330   1.406       .  A
C1329      C1334   1.403   1_455  A
C1329      H1336   1.084       .  S
C1330      C1331   1.419       .  A
C1331      C1332   1.402   1_455  A
C1331      C1338   1.509       .  S
C1332      C1333   1.406       .  A
C1332      H1337   1.084       .  S
C1333      C1334   1.419       .  A
C1334      C1335   1.509       .  S
C1335      H1339   1.111       .  S
C1335      H1340   1.111       .  S
C1335      H1341   1.110       .  S
C1338      H1342   1.110       .  S
C1338      H1343   1.111       .  S
C1338      H1344   1.111       .  S
C1345      C1346   1.407       .  A
C1345      C1350   1.405   1_655  A
C1345      H1352   1.084       .  S
C1346      C1347   1.420       .  A
C1347      C1348   1.403   1_655  A
C1347      C1354   1.510       .  S
C1348      C1349   1.406       .  A
C1348      H1353   1.084       .  S
C1349      C1350   1.420       .  A
C1350      C1351   1.509       .  S
C1351      H1355   1.111       .  S
C1351      H1356   1.110       .  S
C1351      H1357   1.110       .  S
C1354      H1358   1.110       .  S
C1354      H1359   1.111       .  S
C1354      H1360   1.111       .  S
C1361      C1362   1.403       .  A
C1361      C1366   1.405   1_565  A
C1361      H1368   1.085       .  S
C1362      C1363   1.414       .  A
C1363      C1364   1.403   1_565  A
C1363      C1370   1.507       .  S
C1364      C1365   1.403       .  A
C1364      H1369   1.085       .  S
C1365      C1366   1.415       .  A
C1366      C1367   1.508       .  S
C1367      H1371   1.111       .  S
C1367      H1372   1.110       .  S
C1367      H1373   1.111       .  S
C1370      H1374   1.109       .  S
C1370      H1375   1.110       .  S
C1370      H1376   1.111       .  S
C1377      C1378   1.404       .  A
C1377      C1382   1.403       .  A
C1377      H1384   1.084       .  S
C1378      C1379   1.416       .  A
C1379      C1380   1.404       .  A
C1379      C1386   1.508       .  S
C1380      C1381   1.403       .  A
C1380      H1385   1.085       .  S
C1381      C1382   1.414       .  A
C1382      C1383   1.508       .  S
C1383      H1387   1.111       .  S
C1383      H1388   1.111       .  S
C1383      H1389   1.109       .  S
C1386      H1390   1.111       .  S
C1386      H1391   1.109       .  S
C1386      H1392   1.111       .  S
C1393      C1394   1.403       .  A
C1393      C1398   1.403       .  A
C1393      H1400   1.084       .  S
C1394      C1395   1.415       .  A
C1395      C1396   1.404       .  A
C1395      C1402   1.508       .  S
C1396      C1397   1.403       .  A
C1396      H1401   1.084       .  S
C1397      C1398   1.415       .  A
C1398      C1399   1.508       .  S
C1399      H1403   1.111       .  S
C1399      H1404   1.109       .  S
C1399      H1405   1.111       .  S
C1402      H1406   1.109       .  S
C1402      H1407   1.111       .  S
C1402      H1408   1.111       .  S
C1409      C1410   1.403       .  A
C1409      C1414   1.401       .  A
C1409      H1416   1.084       .  S
C1410      C1411   1.414       .  A
C1411      C1412   1.403       .  A
C1411      C1418   1.508       .  S
C1412      C1413   1.403       .  A
C1412      H1417   1.084       .  S
C1413      C1414   1.414       .  A
C1414      C1415   1.509       .  S
C1415      H1419   1.111       .  S
C1415      H1420   1.109       .  S
C1415      H1421   1.111       .  S
C1418      H1422   1.109       .  S
C1418      H1423   1.111       .  S
C1418      H1424   1.111       .  S
C1425      C1426   1.405       .  A
C1425      C1430   1.404       .  A
C1425      H1432   1.084       .  S
C1426      C1427   1.417       .  A
C1427      C1428   1.403       .  A
C1427      C1434   1.509       .  S
C1428      C1429   1.405       .  A
C1428      H1433   1.084       .  S
C1429      C1430   1.417       .  A
C1430      C1431   1.508       .  S
C1431      H1435   1.111       .  S
C1431      H1436   1.109       .  S
C1431      H1437   1.111       .  S
C1434      H1438   1.111       .  S
C1434      H1439   1.109       .  S
C1434      H1440   1.111       .  S
C1441      C1442   1.403       .  A
C1441      C1446   1.403       .  A
C1441      H1448   1.083       .  S
C1442      C1443   1.413       .  A
C1443      C1444   1.403       .  A
C1443      C1450   1.508       .  S
C1444      C1445   1.404       .  A
C1444      H1449   1.083       .  S
C1445      C1446   1.414       .  A
C1446      C1447   1.508       .  S
C1447      H1451   1.111       .  S
C1447      H1452   1.111       .  S
C1447      H1453   1.109       .  S
C1450      H1454   1.111       .  S
C1450      H1455   1.109       .  S
C1450      H1456   1.111       .  S
C1457      C1458   1.403       .  A
C1457      C1462   1.404       .  A
C1457      H1464   1.085       .  S
C1458      C1459   1.416       .  A
C1459      C1460   1.403       .  A
C1459      C1466   1.508       .  S
C1460      C1461   1.403       .  A
C1460      H1465   1.085       .  S
C1461      C1462   1.415       .  A
C1462      C1463   1.508       .  S
C1463      H1467   1.111       .  S
C1463      H1468   1.111       .  S
C1463      H1469   1.109       .  S
C1466      H1470   1.111       .  S
C1466      H1471   1.109       .  S
C1466      H1472   1.111       .  S
C1473      C1474   1.403       .  A
C1473      C1478   1.401       .  A
C1473      H1480   1.083       .  S
C1474      C1475   1.417       .  A
C1475      C1476   1.405       .  A
C1475      C1482   1.508       .  S
C1476      C1477   1.405       .  A
C1476      H1481   1.083       .  S
C1477      C1478   1.417       .  A
C1478      C1479   1.509       .  S
C1479      H1483   1.111       .  S
C1479      H1484   1.109       .  S
C1479      H1485   1.111       .  S
C1482      H1486   1.111       .  S
C1482      H1487   1.111       .  S
C1482      H1488   1.110       .  S
C1489      C1490   1.406       .  A
C1489      C1494   1.404       .  A
C1489      H1496   1.083       .  S
C1490      C1491   1.419       .  A
C1491      C1492   1.404       .  A
C1491      C1498   1.508       .  S
C1492      C1493   1.400       .  A
C1492      H1497   1.084       .  S
C1493      C1494   1.412       .  A
C1494      C1495   1.508       .  S
C1495      H1499   1.111       .  S
C1495      H1500   1.110       .  S
C1495      H1501   1.111       .  S
C1498      H1502   1.109       .  S
C1498      H1503   1.110       .  S
C1498      H1504   1.111       .  S
C1505      C1506   1.407       .  A
C1505      C1510   1.406       .  A
C1505      H1512   1.083       .  S
C1506      C1507   1.419       .  A
C1507      C1508   1.402       .  A
C1507      C1514   1.509       .  S
C1508      C1509   1.405       .  A
C1508      H1513   1.083       .  S
C1509      C1510   1.419       .  A
C1510      C1511   1.509       .  S
C1511      H1515   1.111       .  S
C1511      H1516   1.110       .  S
C1511      H1517   1.110       .  S
C1514      H1518   1.109       .  S
C1514      H1519   1.110       .  S
C1514      H1520   1.111       .  S
C1521      C1522   1.405       .  A
C1521      C1526   1.403       .  A
C1521      H1528   1.084       .  S
C1522      C1523   1.417       .  A
C1523      C1524   1.404       .  A
C1523      C1530   1.508       .  S
C1524      C1525   1.405       .  A
C1524      H1529   1.084       .  S
C1525      C1526   1.415       .  A
C1526      C1527   1.508       .  S
C1527      H1531   1.111       .  S
C1527      H1532   1.111       .  S
C1527      H1533   1.109       .  S
C1530      H1534   1.109       .  S
C1530      H1535   1.111       .  S
C1530      H1536   1.111       .  S
C1537      C1538   1.402       .  A
C1537      C1542   1.403       .  A
C1537      H1544   1.084       .  S
C1538      C1539   1.414       .  A
C1539      C1540   1.404       .  A
C1539      C1546   1.507       .  S
C1540      C1541   1.404       .  A
C1540      H1545   1.084       .  S
C1541      C1542   1.415       .  A
C1542      C1543   1.508       .  S
C1543      H1547   1.111       .  S
C1543      H1548   1.109       .  S
C1543      H1549   1.111       .  S
C1546      H1550   1.109       .  S
C1546      H1551   1.110       .  S
C1546      H1552   1.111       .  S
C1553      C1554   1.403       .  A
C1553      C1558   1.400       .  A
C1553      H1560   1.085       .  S
C1554      C1555   1.414       .  A
C1555      C1556   1.404       .  A
C1555      C1562   1.508       .  S
C1556      C1557   1.403       .  A
C1556      H1561   1.084       .  S
C1557      C1558   1.414       .  A
C1558      C1559   1.509       .  S
C1559      H1563   1.110       .  S
C1559      H1564   1.111       .  S
C1559      H1565   1.107       .  S
C1562      H1566   1.111       .  S
C1562      H1567   1.109       .  S
C1562      H1568   1.111       .  S
C1569      C1570   1.404       .  A
C1569      C1574   1.402       .  A
C1569      H1576   1.084       .  S
C1570      C1571   1.413       .  A
C1571      C1572   1.402       .  A
C1571      C1578   1.508       .  S
C1572      C1573   1.403       .  A
C1572      H1577   1.084       .  S
C1573      C1574   1.414       .  A
C1574      C1575   1.508       .  S
C1575      H1579   1.111       .  S
C1575      H1580   1.109       .  S
C1575      H1581   1.111       .  S
C1578      H1582   1.109       .  S
C1578      H1583   1.110       .  S
C1578      H1584   1.111       .  S
C1585      C1586   1.404       .  A
C1585      C1590   1.403       .  A
C1585      H1592   1.084       .  S
C1586      C1587   1.416       .  A
C1587      C1588   1.405       .  A
C1587      C1594   1.508       .  S
C1588      C1589   1.405       .  A
C1588      H1593   1.084       .  S
C1589      C1590   1.416       .  A
C1590      C1591   1.508       .  S
C1591      H1595   1.111       .  S
C1591      H1596   1.111       .  S
C1591      H1597   1.109       .  S
C1594      H1598   1.109       .  S
C1594      H1599   1.111       .  S
C1594      H1600   1.111       .  S
C1601      C1602   1.406       .  A
C1601      C1606   1.404       .  A
C1601      H1608   1.084       .  S
C1602      C1603   1.416       .  A
C1603      C1604   1.403       .  A
C1603      C1610   1.508       .  S
C1604      C1605   1.402       .  A
C1604      H1609   1.084       .  S
C1605      C1606   1.412       .  A
C1606      C1607   1.508       .  S
C1607      H1611   1.111       .  S
C1607      H1612   1.111       .  S
C1607      H1613   1.109       .  S
C1610      H1614   1.111       .  S
C1610      H1615   1.109       .  S
C1610      H1616   1.111       .  S
C1617      C1618   1.402       .  A
C1617      C1622   1.404       .  A
C1617      H1624   1.084       .  S
C1618      C1619   1.413       .  A
C1619      C1620   1.403       .  A
C1619      C1626   1.506       .  S
C1620      C1621   1.404       .  A
C1620      H1625   1.084       .  S
C1621      C1622   1.416       .  A
C1622      C1623   1.508       .  S
C1623      H1627   1.111       .  S
C1623      H1628   1.109       .  S
C1623      H1629   1.111       .  S
C1626      H1630   1.109       .  S
C1626      H1631   1.110       .  S
C1626      H1632   1.111       .  S
C1633      C1634   1.406       .  A
C1633      C1638   1.404       .  A
C1633      H1640   1.084       .  S
C1634      C1635   1.420       .  A
C1635      C1636   1.403       .  A
C1635      C1642   1.509       .  S
C1636      C1637   1.405       .  A
C1636      H1641   1.084       .  S
C1637      C1638   1.419       .  A
C1638      C1639   1.509       .  S
C1639      H1643   1.111       .  S
C1639      H1644   1.110       .  S
C1639      H1645   1.111       .  S
C1642      H1646   1.108       .  S
C1642      H1647   1.110       .  S
C1642      H1648   1.111       .  S
C1649      C1650   1.406       .  A
C1649      C1654   1.403       .  A
C1649      H1656   1.083       .  S
C1650      C1651   1.417       .  A
C1651      C1652   1.402       .  A
C1651      C1658   1.508       .  S
C1652      C1653   1.400       .  A
C1652      H1657   1.084       .  S
C1653      C1654   1.411       .  A
C1654      C1655   1.508       .  S
C1655      H1659   1.111       .  S
C1655      H1660   1.110       .  S
C1655      H1661   1.110       .  S
C1658      H1662   1.111       .  S
C1658      H1663   1.109       .  S
C1658      H1664   1.111       .  S
C1665      C1666   1.403       .  A
C1665      C1670   1.403       .  A
C1665      H1672   1.084       .  S
C1666      C1667   1.416       .  A
C1667      C1668   1.406       .  A
C1667      C1674   1.508       .  S
C1668      C1669   1.404       .  A
C1668      H1673   1.084       .  S
C1669      C1670   1.415       .  A
C1670      C1671   1.508       .  S
C1671      H1675   1.111       .  S
C1671      H1676   1.110       .  S
C1671      H1677   1.109       .  S
C1674      H1678   1.109       .  S
C1674      H1679   1.111       .  S
C1674      H1680   1.111       .  S
C1681      C1682   1.405       .  A
C1681      C1686   1.404       .  A
C1681      H1688   1.084       .  S
C1682      C1683   1.417       .  A
C1683      C1684   1.402       .  A
C1683      C1690   1.509       .  S
C1684      C1685   1.405       .  A
C1684      H1689   1.084       .  S
C1685      C1686   1.419       .  A
C1686      C1687   1.509       .  S
C1687      H1691   1.111       .  S
C1687      H1692   1.109       .  S
C1687      H1693   1.111       .  S
C1690      H1694   1.111       .  S
C1690      H1695   1.109       .  S
C1690      H1696   1.111       .  S
C1697      C1698   1.404       .  A
C1697      C1702   1.402       .  A
C1697      H1704   1.084       .  S
C1698      C1699   1.416       .  A
C1699      C1700   1.402       .  A
C1699      C1706   1.507       .  S
C1700      C1701   1.401       .  A
C1700      H1705   1.085       .  S
C1701      C1702   1.412       .  A
C1702      C1703   1.507       .  S
C1703      H1707   1.111       .  S
C1703      H1708   1.109       .  S
C1703      H1709   1.110       .  S
C1706      H1710   1.109       .  S
C1706      H1711   1.110       .  S
C1706      H1712   1.111       .  S
C1713      C1714   1.402       .  A
C1713      C1718   1.402       .  A
C1713      H1720   1.085       .  S
C1714      C1715   1.413       .  A
C1715      C1716   1.404       .  A
C1715      C1722   1.508       .  S
C1716      C1717   1.405       .  A
C1716      H1721   1.084       .  S
C1717      C1718   1.415       .  A
C1718      C1719   1.508       .  S
C1719      H1723   1.111       .  S
C1719      H1724   1.110       .  S
C1719      H1725   1.109       .  S
C1722      H1726   1.111       .  S
C1722      H1727   1.109       .  S
C1722      H1728   1.111       .  S
C1729      C1730   1.401       .  A
C1729      C1734   1.403       .  A
C1729      H1736   1.084       .  S
C1730      C1731   1.414       .  A
C1731      C1732   1.403       .  A
C1731      C1738   1.508       .  S
C1732      C1733   1.403       .  A
C1732      H1737   1.084       .  S
C1733      C1734   1.415       .  A
C1734      C1735   1.506       .  S
C1735      H1739   1.111       .  S
C1735      H1740   1.110       .  S
C1735      H1741   1.109       .  S
C1738      H1742   1.111       .  S
C1738      H1743   1.109       .  S
C1738      H1744   1.111       .  S
C1745      C1746   1.406       .  A
C1745      C1750   1.404       .  A
C1745      H1752   1.084       .  S
C1746      C1747   1.419       .  A
C1747      C1748   1.401       .  A
C1747      C1754   1.510       .  S
C1748      C1749   1.405       .  A
C1748      H1753   1.084       .  S
C1749      C1750   1.419       .  A
C1750      C1751   1.509       .  S
C1751      H1755   1.111       .  S
C1751      H1756   1.110       .  S
C1751      H1757   1.110       .  S
C1754      H1758   1.111       .  S
C1754      H1759   1.109       .  S
C1754      H1760   1.111       .  S
C1761      C1762   1.406       .  A
C1761      C1766   1.400       .  A
C1761      H1768   1.084       .  S
C1762      C1763   1.419       .  A
C1763      C1764   1.403       .  A
C1763      C1770   1.508       .  S
C1764      C1765   1.399       .  A
C1764      H1769   1.085       .  S
C1765      C1766   1.409       .  A
C1766      C1767   1.509       .  S
C1767      H1771   1.111       .  S
C1767      H1772   1.110       .  S
C1767      H1773   1.111       .  S
C1770      H1774   1.109       .  S
C1770      H1775   1.111       .  S
C1770      H1776   1.111       .  S
C1777      C1778   1.404       .  A
C1777      C1782   1.404       .  A
C1777      H1784   1.083       .  S
C1778      C1779   1.416       .  A
C1779      C1780   1.402       .  A
C1779      C1786   1.509       .  S
C1780      C1781   1.401       .  A
C1780      H1785   1.083       .  S
C1781      C1782   1.414       .  A
C1782      C1783   1.508       .  S
C1783      H1787   1.111       .  S
C1783      H1788   1.111       .  S
C1783      H1789   1.109       .  S
C1786      H1790   1.111       .  S
C1786      H1791   1.109       .  S
C1786      H1792   1.111       .  S
C1793      C1794   1.405       .  A
C1793      C1798   1.403       .  A
C1793      H1800   1.084       .  S
C1794      C1795   1.418       .  A
C1795      C1796   1.403       .  A
C1795      C1802   1.509       .  S
C1796      C1797   1.406       .  A
C1796      H1801   1.084       .  S
C1797      C1798   1.420       .  A
C1798      C1799   1.509       .  S
C1799      H1803   1.111       .  S
C1799      H1804   1.109       .  S
C1799      H1805   1.110       .  S
C1802      H1806   1.110       .  S
C1802      H1807   1.111       .  S
C1802      H1808   1.111       .  S
C1809      C1810   1.399       .  A
C1809      C1814   1.405       .  A
C1809      H1816   1.084       .  S
C1810      C1811   1.407       .  A
C1811      C1812   1.401       .  A
C1811      C1818   1.508       .  S
C1812      C1813   1.409       .  A
C1812      H1817   1.083       .  S
C1813      C1814   1.422       .  A
C1814      C1815   1.508       .  S
C1815      H1819   1.111       .  S
C1815      H1820   1.110       .  S
C1815      H1821   1.110       .  S
C1818      H1822   1.110       .  S
C1818      H1823   1.110       .  S
C1818      H1824   1.111       .  S
C1825      C1826   1.403       .  A
C1825      C1830   1.403       .  A
C1825      H1832   1.084       .  S
C1826      C1827   1.417       .  A
C1827      C1828   1.404       .  A
C1827      C1834   1.509       .  S
C1828      C1829   1.403       .  A
C1828      H1833   1.084       .  S
C1829      C1830   1.415       .  A
C1830      C1831   1.508       .  S
C1831      H1835   1.111       .  S
C1831      H1836   1.111       .  S
C1831      H1837   1.109       .  S
C1834      H1838   1.109       .  S
C1834      H1839   1.111       .  S
C1834      H1840   1.111       .  S
C1841      C1842   1.403       .  A
C1841      C1846   1.401       .  A
C1841      H1848   1.084       .  S
C1842      C1843   1.417       .  A
C1843      C1844   1.405       .  A
C1843      C1850   1.508       .  S
C1844      C1845   1.405       .  A
C1844      H1849   1.084       .  S
C1845      C1846   1.419       .  A
C1846      C1847   1.509       .  S
C1847      H1851   1.111       .  S
C1847      H1852   1.109       .  S
C1847      H1853   1.111       .  S
C1850      H1854   1.111       .  S
C1850      H1855   1.109       .  S
C1850      H1856   1.111       .  S
C1857      C1858   1.402       .  A
C1857      C1862   1.402       .  A
C1857      H1864   1.084       .  S
C1858      C1859   1.413       .  A
C1859      C1860   1.402       .  A
C1859      C1866   1.508       .  S
C1860      C1861   1.404       .  A
C1860      H1865   1.084       .  S
C1861      C1862   1.414       .  A
C1862      C1863   1.507       .  S
C1863      H1867   1.111       .  S
C1863      H1868   1.110       .  S
C1863      H1869   1.109       .  S
C1866      H1870   1.111       .  S
C1866      H1871   1.109       .  S
C1866      H1872   1.111       .  S
C1873      C1874   1.401       .  A
C1873      C1878   1.404       .  A
C1873      H1880   1.084       .  S
C1874      C1875   1.413       .  A
C1875      C1876   1.405       .  A
C1875      C1882   1.508       .  S
C1876      C1877   1.405       .  A
C1876      H1881   1.084       .  S
C1877      C1878   1.417       .  A
C1878      C1879   1.508       .  S
C1879      H1883   1.111       .  S
C1879      H1884   1.111       .  S
C1879      H1885   1.109       .  S
C1882      H1886   1.111       .  S
C1882      H1887   1.109       .  S
C1882      H1888   1.111       .  S
C1889      C1890   1.405       .  A
C1889      C1894   1.401       .  A
C1889      H1896   1.084       .  S
C1890      C1891   1.418       .  A
C1891      C1892   1.404       .  A
C1891      C1898   1.508       .  S
C1892      C1893   1.401       .  A
C1892      H1897   1.084       .  S
C1893      C1894   1.411       .  A
C1894      C1895   1.508       .  S
C1895      H1899   1.111       .  S
C1895      H1900   1.111       .  S
C1895      H1901   1.109       .  S
C1898      H1902   1.111       .  S
C1898      H1903   1.109       .  S
C1898      H1904   1.111       .  S
C1905      C1906   1.406       .  A
C1905      C1910   1.401       .  A
C1905      H1912   1.084       .  S
C1906      C1907   1.420       .  A
C1907      C1908   1.404       .  A
C1907      C1914   1.509       .  S
C1908      C1909   1.407       .  A
C1908      H1913   1.084       .  S
C1909      C1910   1.420       .  A
C1910      C1911   1.510       .  S
C1911      H1915   1.111       .  S
C1911      H1916   1.110       .  S
C1911      H1917   1.111       .  S
C1914      H1918   1.111       .  S
C1914      H1919   1.110       .  S
C1914      H1920   1.111       .  S
C1921      C1922   1.405       .  A
C1921      C1926   1.404       .  A
C1921      H1928   1.084       .  S
C1922      C1923   1.416       .  A
C1923      C1924   1.405       .  A
C1923      C1930   1.508       .  S
C1924      C1925   1.404       .  A
C1924      H1929   1.084       .  S
C1925      C1926   1.412       .  A
C1926      C1927   1.507       .  S
C1927      H1931   1.111       .  S
C1927      H1932   1.110       .  S
C1927      H1933   1.109       .  S
C1930      H1934   1.111       .  S
C1930      H1935   1.109       .  S
C1930      H1936   1.111       .  S
C1937      C1938   1.402       .  A
C1937      C1942   1.406       .  A
C1937      H1944   1.084       .  S
C1938      C1939   1.414       .  A
C1939      C1940   1.403       .  A
C1939      C1946   1.509       .  S
C1940      C1941   1.404       .  A
C1940      H1945   1.084       .  S
C1941      C1942   1.417       .  A
C1942      C1943   1.508       .  S
C1943      H1947   1.111       .  S
C1943      H1948   1.109       .  S
C1943      H1949   1.110       .  S
C1946      H1950   1.109       .  S
C1946      H1951   1.111       .  S
C1946      H1952   1.111       .  S
C1953      C1954   1.404       .  A
C1953      C1958   1.404       .  A
C1953      H1960   1.084       .  S
C1954      C1955   1.416       .  A
C1955      C1956   1.406       .  A
C1955      C1962   1.508       .  S
C1956      C1957   1.405       .  A
C1956      H1961   1.084       .  S
C1957      C1958   1.418       .  A
C1958      C1959   1.508       .  S
C1959      H1963   1.111       .  S
C1959      H1964   1.111       .  S
C1959      H1965   1.109       .  S
C1962      H1966   1.109       .  S
C1962      H1967   1.111       .  S
C1962      H1968   1.111       .  S
C1969      C1970   1.409       .  A
C1969      C1974   1.403       .  A
C1969      H1976   1.083       .  S
C1970      C1971   1.426       .  A
C1971      C1972   1.405       .  A
C1971      C1978   1.509       .  S
C1972      C1973   1.396       .  A
C1972      H1977   1.084       .  S
C1973      C1974   1.407       .  A
C1974      C1975   1.508       .  S
C1975      H1979   1.111       .  S
C1975      H1980   1.110       .  S
C1975      H1981   1.110       .  S
C1978      H1982   1.110       .  S
C1978      H1983   1.110       .  S
C1978      H1984   1.111       .  S
C1985      C1986   1.404       .  A
C1985      C1990   1.406       .  A
C1985      H1992   1.084       .  S
C1986      C1987   1.414       .  A
C1987      C1988   1.404       .  A
C1987      C1994   1.508       .  S
C1988      C1989   1.403       .  A
C1988      H1993   1.084       .  S
C1989      C1990   1.414       .  A
C1990      C1991   1.508       .  S
C1991      H1995   1.111       .  S
C1991      H1996   1.110       .  S
C1991      H1997   1.111       .  S
C1994      H1998   1.110       .  S
C1994      H1999   1.110       .  S
C1994      H2000   1.111       .  S
C2001      C2002   1.404       .  A
C2001      C2006   1.405       .  A
C2001      H2008   1.085       .  S
C2002      C2003   1.418       .  A
C2003      C2004   1.403       .  A
C2003      C2010   1.509       .  S
C2004      C2005   1.403       .  A
C2004      H2009   1.085       .  S
C2005      C2006   1.418       .  A
C2006      C2007   1.508       .  S
C2007      H2011   1.111       .  S
C2007      H2012   1.111       .  S
C2007      H2013   1.109       .  S
C2010      H2014   1.109       .  S
C2010      H2015   1.111       .  S
C2010      H2016   1.111       .  S
C2017      C2018   1.410       .  A
C2017      C2022   1.401       .  A
C2017      H2024   1.083       .  S
C2018      C2019   1.423       .  A
C2019      C2020   1.404       .  A
C2019      C2026   1.508       .  S
C2020      C2021   1.397       .  A
C2020      H2025   1.085       .  S
C2021      C2022   1.406       .  A
C2022      C2023   1.508       .  S
C2023      H2027   1.111       .  S
C2023      H2028   1.110       .  S
C2023      H2029   1.111       .  S
C2026      H2030   1.110       .  S
C2026      H2031   1.109       .  S
C2026      H2032   1.111       .  S
C2033      C2034   1.402       .  A
C2033      C2038   1.406       .  A
C2033      H2040   1.084       .  S
C2034      C2035   1.413       .  A
C2035      C2036   1.402       .  A
C2035      C2042   1.507       .  S
C2036      C2037   1.404       .  A
C2036      H2041   1.084       .  S
C2037      C2038   1.417       .  A
C2038      C2039   1.508       .  S
C2039      H2043   1.111       .  S
C2039      H2044   1.110       .  S
C2039      H2045   1.109       .  S
C2042      H2046   1.110       .  S
C2042      H2047   1.109       .  S
C2042      H2048   1.111       .  S
C2049      C2050   1.403       .  A
C2049      C2054   1.404       .  A
C2049      H2056   1.084       .  S
C2050      C2051   1.415       .  A
C2051      C2052   1.405       .  A
C2051      C2058   1.508       .  S
C2052      C2053   1.404       .  A
C2052      H2057   1.084       .  S
C2053      C2054   1.415       .  A
C2054      C2055   1.508       .  S
C2055      H2059   1.111       .  S
C2055      H2060   1.109       .  S
C2055      H2061   1.110       .  S
C2058      H2062   1.109       .  S
C2058      H2063   1.110       .  S
C2058      H2064   1.111       .  S
C2065      C2066   1.402       .  A
C2065      C2070   1.403       .  A
C2065      H2072   1.084       .  S
C2066      C2067   1.415       .  A
C2067      C2068   1.404       .  A
C2067      C2074   1.508       .  S
C2068      C2069   1.403       .  A
C2068      H2073   1.085       .  S
C2069      C2070   1.417       .  A
C2070      C2071   1.509       .  S
C2071      H2075   1.111       .  S
C2071      H2076   1.111       .  S
C2071      H2077   1.109       .  S
C2074      H2078   1.111       .  S
C2074      H2079   1.109       .  S
C2074      H2080   1.111       .  S
C2081      C2082   1.404       .  A
C2081      C2086   1.404   1_565  A
C2081      H2088   1.084       .  S
C2082      C2083   1.417       .  A
C2083      C2084   1.404   1_565  A
C2083      C2090   1.509       .  S
C2084      C2085   1.405       .  A
C2084      H2089   1.084       .  S
C2085      C2086   1.417       .  A
C2086      C2087   1.508       .  S
C2087      H2091   1.111       .  S
C2087      H2092   1.111       .  S
C2087      H2093   1.109       .  S
C2090      H2094   1.109       .  S
C2090      H2095   1.111       .  S
C2090      H2096   1.111       .  S
C2097      C2098   1.403       .  A
C2097      C2102   1.404       .  A
C2097      H2104   1.084       .  S
C2098      C2099   1.415       .  A
C2099      C2100   1.405       .  A
C2099      C2106   1.508       .  S
C2100      C2101   1.404       .  A
C2100      H2105   1.084       .  S
C2101      C2102   1.416       .  A
C2102      C2103   1.508       .  S
C2103      H2107   1.111       .  S
C2103      H2108   1.109       .  S
C2103      H2109   1.111       .  S
C2106      H2110   1.109       .  S
C2106      H2111   1.111       .  S
C2106      H2112   1.111       .  S
C2113      C2114   1.403       .  A
C2113      C2118   1.403       .  A
C2113      H2120   1.084       .  S
C2114      C2115   1.413       .  A
C2115      C2116   1.403       .  A
C2115      C2122   1.508       .  S
C2116      C2117   1.404       .  A
C2116      H2121   1.084       .  S
C2117      C2118   1.414       .  A
C2118      C2119   1.508       .  S
C2119      H2123   1.111       .  S
C2119      H2124   1.110       .  S
C2119      H2125   1.111       .  S
C2122      H2126   1.110       .  S
C2122      H2127   1.111       .  S
C2122      H2128   1.111       .  S
C2129      C2130   1.404       .  A
C2129      C2134   1.403   1_655  A
C2129      H2136   1.083       .  S
C2130      C2131   1.417       .  A
C2131      C2132   1.403   1_655  A
C2131      C2138   1.509       .  S
C2132      C2133   1.403       .  A
C2132      H2137   1.083       .  S
C2133      C2134   1.416       .  A
C2134      C2135   1.508       .  S
C2135      H2139   1.111       .  S
C2135      H2140   1.111       .  S
C2135      H2141   1.109       .  S
C2138      H2142   1.109       .  S
C2138      H2143   1.110       .  S
C2138      H2144   1.111       .  S
C2145      C2146   1.403       .  A
C2145      C2150   1.404       .  A
C2145      H2152   1.085       .  S
C2146      C2147   1.414       .  A
C2147      C2148   1.405       .  A
C2147      C2154   1.508       .  S
C2148      C2149   1.404       .  A
C2148      H2153   1.085       .  S
C2149      C2150   1.416       .  A
C2150      C2151   1.508       .  S
C2151      H2155   1.111       .  S
C2151      H2156   1.109       .  S
C2151      H2157   1.110       .  S
C2154      H2158   1.109       .  S
C2154      H2159   1.111       .  S
C2154      H2160   1.111       .  S
C2161      C2162   1.406       .  A
C2161      C2166   1.404       .  A
C2161      H2168   1.085       .  S
C2162      C2163   1.417       .  A
C2163      C2164   1.405       .  A
C2163      C2170   1.508       .  S
C2164      C2165   1.402       .  A
C2164      H2169   1.085       .  S
C2165      C2166   1.412       .  A
C2166      C2167   1.507       .  S
C2167      H2171   1.111       .  S
C2167      H2172   1.109       .  S
C2167      H2173   1.111       .  S
C2170      H2174   1.109       .  S
C2170      H2175   1.111       .  S
C2170      H2176   1.111       .  S
C2177      C2178   1.404       .  A
C2177      C2182   1.404   1_455  A
C2177      H2184   1.085       .  S
C2178      C2179   1.416       .  A
C2179      C2180   1.406   1_455  A
C2179      C2186   1.508       .  S
C2180      C2181   1.405       .  A
C2180      H2185   1.085       .  S
C2181      C2182   1.415       .  A
C2182      C2183   1.508       .  S
C2183      H2187   1.111       .  S
C2183      H2188   1.110       .  S
C2183      H2189   1.109       .  S
C2186      H2190   1.109       .  S
C2186      H2191   1.111       .  S
C2186      H2192   1.111       .  S
C2193      C2194   1.404       .  A
C2193      C2198   1.404   1_545  A
C2193      H2200   1.085       .  S
C2194      C2195   1.415       .  A
C2195      C2196   1.403   1_545  A
C2195      C2202   1.508       .  S
C2196      C2197   1.404       .  A
C2196      H2201   1.085       .  S
C2197      C2198   1.417       .  A
C2198      C2199   1.508       .  S
C2199      H2203   1.111       .  S
C2199      H2204   1.111       .  S
C2199      H2205   1.109       .  S
C2202      H2206   1.109       .  S
C2202      H2207   1.111       .  S
C2202      H2208   1.111       .  S
