geometry optimzed in LAMMPS
_audit_creation_date              2020-12-01 
_audit_creation_method            'lammps2cif' 
_symmetry_space_group_name_H-M    'P1' 
_symmetry_Int_Tables_number       1 
_symmetry_cell_setting            triclinic 
loop_ 
_symmetry_equiv_pos_as_xyz 
  x,y,z 
_cell_length_a                    47.24576142 
_cell_length_b                    47.19959366244489 
_cell_length_c                    51.0903716953302 
_cell_angle_alpha                 89.95503471152644 
_cell_angle_beta                  90.02613848403831 
_cell_angle_gamma                 89.98249665604442 
loop_ 
_atom_site_label 
_atom_site_type_symbol 
_atom_site_fract_x 
_atom_site_fract_y 
_atom_site_fract_z 
_atom_site_charge 
O1          O  0.53116560  0.84696495  0.47099953    -0.73000
O2          O  0.47029639  0.84833437  0.02538819    -0.73900
O3          O  0.53002999  0.84800175  0.02689211    -0.62600
O4          O  0.47161244  0.84711594  0.46936649    -0.71000
O5          O  0.47115025  0.80007387  0.47007091    -0.70500
O6          O  0.53014173  0.80095589  0.02681391    -0.61800
O7          O  0.46966583  0.80128604  0.02542381    -0.74300
O8          O  0.53144298  0.79990971  0.47141191    -0.73100
Cu9        Cu  0.50082130  0.84953151  0.99803487     1.04600
Cu10       Cu  0.50043230  0.79854580  0.49854509     1.04300
C11         C  0.54068649  0.82343451  0.46240722     0.93200
C12         C  0.46044201  0.82496429  0.03408007     0.92400
C13         C  0.53916825  0.82445343  0.03596310     0.84500
C14         C  0.46238854  0.82350871  0.46054397     0.90800
N15         N  0.59699170  0.81148234  0.41512368    -0.27300
N16         N  0.58770005  0.83655163  0.40736421    -0.35200
C17         C  0.56654897  0.84474870  0.42326119     0.01000
C18         C  0.56209340  0.82362815  0.44159226     0.07100
C19         C  0.58164203  0.80278484  0.43580593    -0.06000
H20         H  0.55492099  0.86439031  0.42131078     0.07700
H21         H  0.58488989  0.78304652  0.44616490     0.08900
Cu22       Cu  0.60347999  0.85790129  0.37486931     0.44200
Cu23       Cu  0.63152646  0.79139908  0.39858162     0.42000
Cu24       Cu  0.66882750  0.83015585  0.34812500     0.43900
N25         N  0.62303034  0.87411260  0.34161155    -0.34700
N26         N  0.64757643  0.86469920  0.33271454    -0.28900
C27         C  0.65512015  0.87998032  0.31164481    -0.05000
C28         C  0.63409701  0.89960932  0.30674554     0.07200
C29         C  0.61400890  0.89531851  0.32603927     0.01000
H30         H  0.67426049  0.87667168  0.30043216     0.08600
H31         H  0.59458217  0.90706598  0.32886237     0.07700
N32         N  0.68335343  0.79263516  0.36426255    -0.36100
N33         N  0.66941966  0.77828304  0.38236694    -0.28300
C34         C  0.68414847  0.75485877  0.38851117    -0.03600
C35         C  0.70863530  0.75461865  0.37376740     0.05000
C36         C  0.70732149  0.77867147  0.35834417     0.03100
H37         H  0.67763401  0.73926700  0.40282825     0.08200
H38         H  0.72226356  0.78528541  0.34353068     0.07100
N39         N  0.40648957  0.81014056  0.41309867    -0.27300
N40         N  0.41590413  0.83484423  0.40454890    -0.35200
C41         C  0.43716663  0.84355670  0.42015768     0.01000
C42         C  0.44152284  0.82313287  0.43918745     0.07100
C43         C  0.42186648  0.80217052  0.43401410    -0.06000
H44         H  0.44868796  0.86318976  0.41772942     0.07700
H45         H  0.41837586  0.78297412  0.44514149     0.08900
Cu46       Cu  0.39907331  0.85522215  0.37200734     0.44200
Cu47       Cu  0.37123074  0.78999043  0.39763492     0.42000
Cu48       Cu  0.33247731  0.82758475  0.34693444     0.43900
N49         N  0.37791168  0.87180899  0.33979691    -0.34700
N50         N  0.35301273  0.86266232  0.33148622    -0.28900
C51         C  0.34470265  0.87859854  0.31102638    -0.05000
C52         C  0.36561167  0.89833264  0.30597054     0.07200
C53         C  0.38637134  0.89340630  0.32448901     0.01000
H54         H  0.32521991  0.87557493  0.30024521     0.08600
H55         H  0.40600120  0.90491255  0.32690714     0.07700
N56         N  0.31871983  0.79007776  0.36389031    -0.36100
N57         N  0.33294552  0.77632755  0.38224942    -0.28300
C58         C  0.31833278  0.75304951  0.38918650    -0.03600
C59         C  0.29380668  0.75219909  0.37450708     0.05000
C60         C  0.29475966  0.77580455  0.35854314     0.03100
H61         H  0.32503840  0.73792809  0.40385707     0.08200
H62         H  0.27913702  0.78221762  0.34422738     0.07100
N63         N  0.64637118  0.86255704  0.16679486    -0.27300
N64         N  0.62230725  0.87282843  0.15755334    -0.35200
C65         C  0.61432469  0.89492280  0.17247021     0.01000
C66         C  0.63459058  0.89892999  0.19167495     0.07100
C67         C  0.65466782  0.87817313  0.18742766    -0.06000
H68         H  0.59536501  0.90734507  0.16937071     0.07700
H69         H  0.67350838  0.87419950  0.19890736     0.08900
Cu70       Cu  0.60185899  0.85661350  0.12471185     0.44200
Cu71       Cu  0.66568441  0.82647189  0.15238143     0.42000
Cu72       Cu  0.62877979  0.78964950  0.10042256     0.43900
N73         N  0.58566019  0.83602430  0.09193903    -0.34700
N74         N  0.59461441  0.81092499  0.08393187    -0.28900
C75         C  0.57931328  0.80293253  0.06297943    -0.05000
C76         C  0.56018189  0.82422837  0.05722398     0.07200
C77         C  0.56480945  0.84492021  0.07591809     0.01000
H78         H  0.58233987  0.78334028  0.05236022     0.08600
H79         H  0.55356836  0.86476720  0.07798037     0.07700
N80         N  0.66593017  0.77499622  0.11753554    -0.36100
N81         N  0.67932549  0.78856148  0.13649505    -0.28300
C82         C  0.70281921  0.77408737  0.14295136    -0.03600
C83         C  0.70421193  0.75024291  0.12738362     0.05000
C84         C  0.68071845  0.75157877  0.11128751     0.03100
H85         H  0.71803184  0.78074345  0.15753478     0.08200
H86         H  0.67494431  0.73678277  0.09603236     0.07100
N87         N  0.40198443  0.81384566  0.07937561    -0.27300
N88         N  0.41294035  0.83742778  0.08904105    -0.35200
C89         C  0.43507989  0.84526555  0.07410214     0.01000
C90         C  0.43848790  0.82538646  0.05445550     0.07100
C91         C  0.41725008  0.80572749  0.05843699    -0.06000
H92         H  0.44814024  0.86369443  0.07765474     0.07700
H93         H  0.41291149  0.78713115  0.04673674     0.08900
Cu94       Cu  0.39804681  0.85719691  0.12281726     0.44200
Cu95       Cu  0.36589900  0.79436635  0.09413193     0.42000
Cu96       Cu  0.33114740  0.83039230  0.14741999     0.43900
N97         N  0.37796074  0.87297835  0.15607707    -0.34700
N98         N  0.35290276  0.86404562  0.16416647    -0.28900
C99         C  0.34496186  0.87934842  0.18512385    -0.05000
C100        C  0.36622007  0.89849498  0.19079818     0.07200
C101        C  0.38687457  0.89384346  0.17206772     0.01000
H102        H  0.32531065  0.87647318  0.19566153     0.08600
H103        H  0.40659213  0.90524305  0.16983237     0.07700
N104        N  0.31526224  0.79395252  0.13001332    -0.36100
N105        N  0.32823143  0.78044920  0.11077830    -0.28300
C106        C  0.31336378  0.75701533  0.10474422    -0.03600
C107        C  0.28975835  0.75593575  0.12073115     0.05000
C108        C  0.29178455  0.77951134  0.13668556     0.03100
H109        H  0.31945058  0.74171061  0.09003207     0.08200
H110        H  0.27776530  0.78526328  0.15254941     0.07100
O111        O  0.65787795  0.99026299  0.27676961    -0.73000
O112        O  0.65815874  0.92941608  0.22158565    -0.73900
O113        O  0.65895817  0.98968996  0.22121049    -0.62600
O114        O  0.65753206  0.92996997  0.27694828    -0.71000
O115        O  0.61051715  0.93050302  0.27699064    -0.70500
O116        O  0.61195484  0.98984225  0.22024276    -0.61800
O117        O  0.61115574  0.93023744  0.22080835    -0.74300
O118        O  0.61086942  0.99020394  0.27657170    -0.73100
Cu119      Cu  0.65976120  0.95984232  0.24916144     1.04600
Cu120      Cu  0.60946310  0.96024020  0.24863388     1.04300
C121        C  0.63430384  0.99946559  0.28562533     0.93200
C122        C  0.63464974  0.92050179  0.21234689     0.92400
C123        C  0.63572620  0.99879704  0.21160758     0.84500
C124        C  0.63395808  0.92100301  0.28590465     0.90800
O125        O  0.34273624  0.92898180  0.22075464    -0.73000
O126        O  0.34238621  0.98960558  0.27609224    -0.73900
O127        O  0.34265626  0.98929586  0.22070329    -0.62600
O128        O  0.34232638  0.92913599  0.27619808    -0.71000
O129        O  0.38933789  0.92941238  0.27671328    -0.70500
O130        O  0.38967453  0.98913602  0.22055127    -0.61800
O131        O  0.38938654  0.98922308  0.27671158    -0.74300
O132        O  0.38973720  0.92936341  0.22054075    -0.73100
Cu133      Cu  0.34089646  0.95925585  0.24843911     1.04600
Cu134      Cu  0.39119284  0.95928296  0.24865162     1.04300
C135        C  0.36626328  0.91988710  0.21172152     0.93200
C136        C  0.36582749  0.99877779  0.28524974     0.92400
C137        C  0.36614643  0.99847186  0.21171852     0.84500
C138        C  0.36577121  0.91994188  0.28530826     0.90800
O139        O  0.46900933  0.07107470  0.47071260    -0.73000
O140        O  0.52922895  0.06970608  0.02694937    -0.73900
O141        O  0.46952076  0.07074510  0.02690430    -0.62600
O142        O  0.52870007  0.07050575  0.47070737    -0.71000
O143        O  0.52957591  0.11755147  0.47153657    -0.70500
O144        O  0.46964781  0.11780858  0.02661047    -0.61800
O145        O  0.53005519  0.11675955  0.02691366    -0.74300
O146        O  0.46920122  0.11812937  0.47115833    -0.73100
Cu147      Cu  0.49884347  0.06890693  0.49874940     1.04600
Cu148      Cu  0.49926016  0.11925800  0.49905234     1.04300
C149        C  0.45987556  0.09474706  0.46198650     0.93200
C150        C  0.53904851  0.09306710  0.03571347     0.92400
C151        C  0.46027428  0.09436743  0.03560740     0.84500
C152        C  0.53852649  0.09404527  0.46233834     0.90800
N153        N  0.35287066  0.05604699  0.33139693    -0.27300
N154        N  0.37726196  0.04633499  0.34039920    -0.35200
C155        C  0.38585824  0.02473967  0.32513403     0.01000
C156        C  0.36564204  0.02041220  0.30593457     0.07100
C157        C  0.34497058  0.04052534  0.31055795    -0.06000
H158        H  0.40511949  0.01275041  0.32808999     0.07700
H159        H  0.32588483  0.04401589  0.29929337     0.08900
Cu160      Cu  0.39705364  0.06254189  0.37357920     0.44200
Cu161      Cu  0.33256541  0.09120352  0.34677483     0.42000
Cu162      Cu  0.37026544  0.12950114  0.39775103     0.43900
N163        N  0.41308738  0.08318328  0.40638108    -0.34700
N164        N  0.40431181  0.10838159  0.41427196    -0.28900
C165        C  0.41967224  0.11644595  0.43516027    -0.05000
C166        C  0.43867464  0.09507678  0.44095587     0.07200
C167        C  0.43388962  0.07428134  0.42240893     0.01000
H168        H  0.41679300  0.13613195  0.44566660     0.08600
H169        H  0.44505960  0.05438764  0.42039982     0.07700
N170        N  0.33225471  0.14278189  0.38166117    -0.36100
N171        N  0.31832192  0.12857639  0.36344948    -0.28300
C172        C  0.29410892  0.14230168  0.35793150    -0.03600
C173        C  0.29257682  0.16602164  0.37369917     0.05000
C174        C  0.31723515  0.16590002  0.38824758     0.03100
H175        H  0.27901197  0.13565906  0.34325692     0.08200
H176        H  0.32359758  0.18126552  0.40280936     0.07100
N177        N  0.59641908  0.10662310  0.41691244    -0.27300
N178        N  0.58629178  0.08254915  0.40749920    -0.35200
C179        C  0.56438320  0.07416996  0.42245266     0.01000
C180        C  0.56028545  0.09415659  0.44185063     0.07100
C181        C  0.58083263  0.11449008  0.43770815    -0.06000
H182        H  0.55203239  0.05520858  0.41913870     0.07700
H183        H  0.58456271  0.13332429  0.44926589     0.08900
Cu184      Cu  0.60186371  0.06241933  0.37422643     0.44200
Cu185      Cu  0.63201590  0.12699239  0.40236048     0.42000
Cu186      Cu  0.66647029  0.09095887  0.34853978     0.43900
N187        N  0.62195791  0.04623416  0.34118799    -0.34700
N188        N  0.64651557  0.05596328  0.33266220    -0.28900
C189        C  0.65478052  0.04068542  0.31180937    -0.05000
C190        C  0.63415715  0.02072950  0.30661852     0.07200
C191        C  0.61359816  0.02484020  0.32556013     0.01000
H192        H  0.67405453  0.04429710  0.30087695     0.08600
H193        H  0.59425216  0.01288004  0.32805695     0.07700
N194        N  0.68159148  0.12781334  0.36538613    -0.36100
N195        N  0.66929187  0.14093956  0.38518334    -0.28300
C196        C  0.68468746  0.16392859  0.39144119    -0.03600
C197        C  0.70789575  0.16519583  0.37490291     0.05000
C198        C  0.70488928  0.14221861  0.35832908     0.03100
H199        H  0.67941691  0.17864716  0.40691712     0.08200
H200        H  0.71794562  0.13671121  0.34177303     0.07100
N201        N  0.59711418  0.10504784  0.08112287    -0.27300
N202        N  0.58789906  0.08020368  0.08953645    -0.35200
C203        C  0.56600410  0.07190899  0.07451621     0.01000
C204        C  0.56097641  0.09277849  0.05607833     0.07100
C205        C  0.58097767  0.11349973  0.06087509    -0.06000
H206        H  0.55431734  0.05240159  0.07713712     0.07700
H207        H  0.58395286  0.13302933  0.05012178     0.08900
Cu208      Cu  0.60485587  0.05949913  0.12175497     0.44200
Cu209      Cu  0.63223178  0.12559625  0.09650360     0.42000
Cu210      Cu  0.67094332  0.08799621  0.14684574     0.43900
N211        N  0.62533251  0.04399478  0.15471107    -0.34700
N212        N  0.65010118  0.05341577  0.16308490    -0.28900
C213        C  0.65771972  0.03862064  0.18448831    -0.05000
C214        C  0.63645596  0.01943232  0.19010596     0.07200
C215        C  0.61626546  0.02338870  0.17086994     0.01000
H216        H  0.67692903  0.04213172  0.19555679     0.08600
H217        H  0.59657687  0.01194560  0.16860238     0.07700
N218        N  0.68396466  0.12649103  0.13112743    -0.36100
N219        N  0.66947770  0.14050240  0.11313396    -0.28300
C220        C  0.68289044  0.16498167  0.10778236    -0.03600
C221        C  0.70679157  0.16659476  0.12336755     0.05000
C222        C  0.70699421  0.14169743  0.13768064     0.03100
H223        H  0.67595438  0.18019425  0.09330073     0.08200
H224        H  0.72255725  0.13528953  0.15205502     0.07100
N225        N  0.40272725  0.10656261  0.08153720    -0.27300
N226        N  0.41344237  0.08277395  0.09101766    -0.35200
C227        C  0.43534439  0.07466964  0.07596751     0.01000
C228        C  0.43883777  0.09454916  0.05637079     0.07100
C229        C  0.41795639  0.11456534  0.06053740    -0.06000
H230        H  0.44801000  0.05589995  0.07927095     0.07700
H231        H  0.41366749  0.13315776  0.04878501     0.08900
Cu232      Cu  0.39819956  0.06255533  0.12418435     0.44200
Cu233      Cu  0.36654056  0.12583582  0.09626351     0.42000
Cu234      Cu  0.33075710  0.08824527  0.14814929     0.43900
N235        N  0.37776070  0.04592878  0.15664657    -0.34700
N236        N  0.35248689  0.05443415  0.16451874    -0.28900
C237        C  0.34448831  0.03876284  0.18521015    -0.05000
C238        C  0.36595521  0.01985551  0.19088558     0.07200
C239        C  0.38677050  0.02496849  0.17246748     0.01000
H240        H  0.32472761  0.04132145  0.19564065     0.08600
H241        H  0.40672300  0.01393882  0.17039351     0.07700
N242        N  0.31522347  0.12510740  0.13135189    -0.36100
N243        N  0.32847376  0.13905757  0.11255695    -0.28300
C244        C  0.31368438  0.16260807  0.10679221    -0.03600
C245        C  0.28983781  0.16337447  0.12251143     0.05000
C246        C  0.29171181  0.13944156  0.13809133     0.03100
H247        H  0.32003456  0.17828027  0.09249099     0.08200
H248        H  0.27782816  0.13348604  0.15397692     0.07100
O249        O  0.97017859  0.57204057  0.22308142    -0.73000
O250        O  0.02859063  0.57243514  0.28080632    -0.73900
O251        O  0.96902501  0.57237379  0.27924712    -0.62600
O252        O  0.02989615  0.57155577  0.22452029    -0.71000
O253        O  0.03060921  0.61860112  0.22442550    -0.70500
O254        O  0.96865508  0.61942780  0.27871970    -0.61800
O255        O  0.02895536  0.61947446  0.27996758    -0.74300
O256        O  0.97013453  0.61908596  0.22316758    -0.73100
Cu257      Cu  0.99941770  0.57046002  0.25192324     1.04600
Cu258      Cu  0.99959134  0.62079233  0.25153715     1.04300
C259        C  0.96105687  0.59560507  0.21402737     0.93200
C260        C  0.03777474  0.59609089  0.28955785     0.92400
C261        C  0.95946211  0.59591231  0.28778415     0.84500
C262        C  0.03973513  0.59489347  0.21574156     0.90800
O263        O  0.03069159  0.34836700  0.27951574    -0.73000
O264        O  0.97107355  0.34959084  0.22329650    -0.73900
O265        O  0.97100176  0.34903720  0.27936590    -0.62600
O266        O  0.03077614  0.34882818  0.22336748    -0.71000
O267        O  0.03086658  0.30176380  0.22358421    -0.70500
O268        O  0.97006295  0.30199435  0.27852531    -0.61800
O269        O  0.97046237  0.30253564  0.22320312    -0.74300
O270        O  0.03043355  0.30131380  0.27901875    -0.73100
Cu271      Cu  0.00093124  0.35061147  0.25139143     1.04600
Cu272      Cu  0.00045665  0.30026294  0.25106092     1.04300
C273        C  0.03976641  0.32466775  0.28824009     0.93200
C274        C  0.96138648  0.32621614  0.21444071     0.92400
C275        C  0.96113445  0.32551132  0.28772486     0.84500
C276        C  0.04013483  0.32526446  0.21462989     0.90800
O277        O  0.15698800  0.49001836  0.02899093    -0.73000
O278        O  0.15775288  0.42987242  0.47390553    -0.73900
O279        O  0.15763625  0.49035896  0.47388600    -0.62600
O280        O  0.15704426  0.42970433  0.02887379    -0.71000
O281        O  0.11002564  0.42989474  0.02892900    -0.70500
O282        O  0.11062512  0.48998610  0.47342501    -0.61800
O283        O  0.11075307  0.43016777  0.47335788    -0.74300
O284        O  0.10998710  0.48967822  0.02909025    -0.73100
Cu285      Cu  0.15920361  0.46020821  0.50160644     1.04600
Cu286      Cu  0.10890901  0.46006740  0.50145315     1.04300
C287        C  0.13344006  0.49911771  0.03798346     0.93200
C288        C  0.13431203  0.42066523  0.46476989     0.92400
C289        C  0.13415926  0.49952650  0.46482218     0.84500
C290        C  0.13352868  0.42051641  0.03778491     0.90800
N291        N  0.14690514  0.55686051  0.41871992    -0.27300
N292        N  0.12197880  0.54778527  0.41042174    -0.35200
C293        C  0.11348690  0.52618823  0.42572100     0.01000
C294        C  0.13426288  0.52120017  0.44421729     0.07100
C295        C  0.15520160  0.54089681  0.43916034    -0.06000
H296        H  0.09384518  0.51470467  0.42329392     0.07700
H297        H  0.17472307  0.54384488  0.44989955     0.08900
Cu298      Cu  0.10093675  0.56448240  0.37818506     0.44200
Cu299      Cu  0.16757846  0.59177255  0.40316994     0.42000
Cu300      Cu  0.12921059  0.62951243  0.35226920     0.43900
N301        N  0.08422861  0.58489428  0.34559832    -0.34700
N302        N  0.09375669  0.60951700  0.33694817    -0.28900
C303        C  0.07839047  0.61746110  0.31600829    -0.05000
C304        C  0.05863783  0.59655509  0.31092436     0.07200
C305        C  0.06292113  0.57620801  0.33003386     0.01000
H306        H  0.08197247  0.63657633  0.30478701     0.08600
H307        H  0.05132872  0.55662779  0.33253580     0.07700
N308        N  0.16770621  0.64278738  0.36756192    -0.36100
N309        N  0.18175573  0.62897912  0.38600058    -0.28300
C310        C  0.20588104  0.64298629  0.39130113    -0.03600
C311        C  0.20714617  0.66647149  0.37521403     0.05000
C312        C  0.18261467  0.66584391  0.36052414     0.03100
H313        H  0.22137736  0.63649969  0.40570600     0.08200
H314        H  0.17607643  0.68100213  0.34582159     0.07100
N315        N  0.14710432  0.36334834  0.41859608    -0.27300
N316        N  0.12262382  0.37298904  0.40973792    -0.35200
C317        C  0.11411291  0.39461681  0.42500441     0.01000
C318        C  0.13447049  0.39904540  0.44405847     0.07100
C319        C  0.15514396  0.37895258  0.43934262    -0.06000
H320        H  0.09478748  0.40653614  0.42216865     0.07700
H321        H  0.17430387  0.37550357  0.45050973     0.08900
Cu322      Cu  0.10257883  0.35661631  0.37675188     0.44200
Cu323      Cu  0.16726566  0.32810289  0.40319599     0.42000
Cu324      Cu  0.12943371  0.28973705  0.35232474     0.43900
N325        N  0.08648149  0.33601780  0.34394645    -0.34700
N326        N  0.09531322  0.31088063  0.33593889    -0.28900
C327        C  0.07996731  0.30289779  0.31501436    -0.05000
C328        C  0.06091951  0.32425748  0.30931385     0.07200
C329        C  0.06565501  0.34495871  0.32796090     0.01000
H330        H  0.08290474  0.28328628  0.30440332     0.08600
H331        H  0.05446272  0.36483078  0.33004368     0.07700
N332        N  0.16739364  0.27636296  0.36847311    -0.36100
N333        N  0.18135486  0.29058603  0.38665557    -0.28300
C334        C  0.20549931  0.27678079  0.39225832    -0.03600
C335        C  0.20696648  0.25298754  0.37657853     0.05000
C336        C  0.18233338  0.25315444  0.36198861     0.03100
H337        H  0.22060140  0.28343172  0.40692409     0.08200
H338        H  0.17594576  0.23776856  0.34745456     0.07100
N339        N  0.14734005  0.36475890  0.08513926    -0.27300
N340        N  0.12208884  0.37328815  0.09305604    -0.35200
C341        C  0.11296984  0.39410503  0.07712248     0.01000
C342        C  0.13369244  0.39909960  0.05858707     0.07100
C343        C  0.15520952  0.38026662  0.06430417    -0.06000
H344        H  0.09305422  0.40518844  0.07925354     0.07700
H345        H  0.17497163  0.37772464  0.05387214     0.08900
Cu346      Cu  0.10190503  0.35701722  0.12581728     0.44200
Cu347      Cu  0.16939247  0.33132641  0.10180390     0.42000
Cu348      Cu  0.13403252  0.29417449  0.15411661     0.43900
N349        N  0.08687006  0.33696909  0.15916310    -0.34700
N350        N  0.09774327  0.31329831  0.16874003    -0.28900
C351        C  0.08258685  0.30529674  0.18977965    -0.05000
C352        C  0.06158619  0.32519604  0.19388270     0.07200
C353        C  0.06493049  0.34500747  0.17420138     0.01000
H354        H  0.08699625  0.28677818  0.20159370     0.08600
H355        H  0.05211877  0.36365989  0.17081469     0.07700
N356        N  0.17223831  0.28111491  0.13804005    -0.36100
N357        N  0.18537253  0.29492304  0.11908870    -0.28300
C358        C  0.20901630  0.28070433  0.11252937    -0.03600
C359        C  0.21107142  0.25699471  0.12837943     0.05000
C360        C  0.18721609  0.25777097  0.14407976     0.03100
H361        H  0.22284604  0.28653258  0.09656092     0.08200
H362        H  0.18094878  0.24219957  0.15850583     0.07100
N363        N  0.14671266  0.55509495  0.08540624    -0.27300
N364        N  0.12162249  0.54624163  0.09348760    -0.35200
C365        C  0.11273407  0.52529526  0.07756509     0.01000
C366        C  0.13344526  0.52052102  0.05890224     0.07100
C367        C  0.15469739  0.53967501  0.06454196    -0.06000
H368        H  0.09298445  0.51394779  0.07978369     0.07700
H369        H  0.17436250  0.54250596  0.05401608     0.08900
Cu370      Cu  0.10148827  0.56229697  0.12665119     0.44200
Cu371      Cu  0.16845274  0.58886617  0.10191783     0.42000
Cu372      Cu  0.13371687  0.62532545  0.15490310     0.43900
N373        N  0.08676488  0.58224549  0.16044190    -0.34700
N374        N  0.09777981  0.60587309  0.16995593    -0.28900
C375        C  0.08270164  0.61405656  0.19098893    -0.05000
C376        C  0.06152164  0.59439639  0.19520379     0.07200
C377        C  0.06476367  0.57445124  0.17558016     0.01000
H378        H  0.08713438  0.63269909  0.20259607     0.08600
H379        H  0.05169069  0.55599506  0.17219239     0.07700
N380        N  0.17124640  0.63923143  0.13802163    -0.36100
N381        N  0.18423483  0.62556029  0.11890167    -0.28300
C382        C  0.20764291  0.64001436  0.11205025    -0.03600
C383        C  0.20958837  0.66378348  0.12776520     0.05000
C384        C  0.18602497  0.66279076  0.14380350     0.03100
H385        H  0.22168391  0.63411162  0.09625036     0.08200
H386        H  0.17993145  0.67820986  0.15841080     0.07100
O387        O  0.88922332  0.48925944  0.47329330    -0.73000
O388        O  0.88779118  0.42974078  0.03005032    -0.73900
O389        O  0.88888678  0.42955780  0.47362258    -0.62600
O390        O  0.88864585  0.48933373  0.02958152    -0.71000
O391        O  0.84164073  0.49023867  0.02896193    -0.70500
O392        O  0.84187956  0.42952210  0.47331981    -0.61800
O393        O  0.84078330  0.42994898  0.02929290    -0.74300
O394        O  0.84220908  0.48982082  0.47326526    -0.73100
Cu395      Cu  0.89017981  0.45937402  0.00171487     1.04600
Cu396      Cu  0.83987868  0.45985178  0.00136466     1.04300
C397        C  0.86580695  0.49878388  0.46435260     0.93200
C398        C  0.86406021  0.42081628  0.03879259     0.92400
C399        C  0.86547014  0.42032021  0.46450347     0.84500
C400        C  0.86520329  0.49913524  0.03809711     0.90800
N401        N  0.85322833  0.36388578  0.41741239    -0.27300
N402        N  0.87781267  0.37356821  0.40890710    -0.35200
C403        C  0.88620325  0.39493394  0.42456072     0.01000
C404        C  0.86563508  0.39906876  0.44349461     0.07100
C405        C  0.84497909  0.37915853  0.43827126    -0.06000
H406        H  0.90557187  0.40686203  0.42208451     0.07700
H407        H  0.82568549  0.37557784  0.44918318     0.08900
Cu408      Cu  0.89787265  0.35733301  0.37585191     0.44200
Cu409      Cu  0.83319216  0.32896095  0.40150644     0.42000
Cu410      Cu  0.86759309  0.29275832  0.34776416     0.43900
N411        N  0.91339751  0.33712497  0.34257986    -0.34700
N412        N  0.90323363  0.31305259  0.33319321    -0.28900
C413        C  0.91880188  0.30513904  0.31239737    -0.05000
C414        C  0.93937396  0.32544080  0.30822085     0.07200
C415        C  0.93530969  0.34545460  0.32760494     0.01000
H416        H  0.91503983  0.28629683  0.30085967     0.08600
H417        H  0.94768712  0.36440381  0.33089367     0.07700
N418        N  0.83025918  0.27893393  0.36493657    -0.36100
N419        N  0.81797589  0.29213326  0.38470027    -0.28300
C420        C  0.79464640  0.27779442  0.39178271    -0.03600
C421        C  0.79160075  0.25477765  0.37526262     0.05000
C422        C  0.81481904  0.25595929  0.35872654     0.03100
H423        H  0.78160753  0.28336529  0.40833136     0.08200
H424        H  0.82007510  0.24118116  0.34329493     0.07100
N425        N  0.85239672  0.55509818  0.41749478    -0.27300
N426        N  0.87697624  0.54567315  0.40868796    -0.35200
C427        C  0.88591920  0.52446662  0.42429594     0.01000
C428        C  0.86574512  0.52018380  0.44351552     0.07100
C429        C  0.84475191  0.53982158  0.43853793    -0.06000
H430        H  0.90534977  0.51270613  0.42154208     0.07700
H431        H  0.82556403  0.54313920  0.44967857     0.08900
Cu432      Cu  0.89665415  0.56182466  0.37546408     0.44200
Cu433      Cu  0.83124887  0.58965383  0.40199893     0.42000
Cu434      Cu  0.86863747  0.62820309  0.35145761     0.43900
N435        N  0.91245186  0.58300116  0.34287475    -0.34700
N436        N  0.90314191  0.60802007  0.33499726    -0.28900
C437        C  0.91847960  0.61661785  0.31427639    -0.05000
C438        C  0.93804723  0.59576443  0.30858846     0.07200
C439        C  0.93361198  0.57473579  0.32701494     0.01000
H440        H  0.91522048  0.63630277  0.30383358     0.08600
H441        H  0.94526190  0.55511829  0.32905772     0.07700
N442        N  0.83081957  0.64147238  0.36768219    -0.36100
N443        N  0.81685747  0.62720121  0.38582212    -0.28300
C444        C  0.79294305  0.64125444  0.39173568    -0.03600
C445        C  0.79169687  0.66527790  0.37627181     0.05000
C446        C  0.81616374  0.66493153  0.36150713     0.03100
H447        H  0.77797811  0.63470824  0.40655572     0.08200
H448        H  0.82270512  0.68046278  0.34714452     0.07100
N449        N  0.90540206  0.60912397  0.16624266    -0.27300
N450        N  0.91458739  0.58419295  0.15800881    -0.35200
C451        C  0.93554237  0.57532947  0.17392731     0.01000
C452        C  0.94000594  0.59586796  0.19279465     0.07100
C453        C  0.92066708  0.61704513  0.18724541    -0.06000
H454        H  0.94695827  0.55560603  0.17168340     0.07700
H455        H  0.91747383  0.63649611  0.19804268     0.08900
Cu456      Cu  0.89851506  0.56369857  0.12513777     0.44200
Cu457      Cu  0.87099678  0.63024948  0.14995864     0.42000
Cu458      Cu  0.83459955  0.59363263  0.09756608     0.43900
N459        N  0.87793792  0.54725582  0.09247095    -0.34700
N460        N  0.85383580  0.55747397  0.08326928    -0.28900
C461        C  0.84538052  0.54166808  0.06281977    -0.05000
C462        C  0.86538858  0.52082869  0.05865248     0.07200
C463        C  0.88578867  0.52499626  0.07770545     0.01000
H464        H  0.82647556  0.54556218  0.05140746     0.08600
H465        H  0.90474749  0.51257360  0.08080773     0.07700
N466        N  0.82066543  0.63133696  0.11360705    -0.36100
N467        N  0.83382045  0.64480291  0.13276966    -0.28300
C468        C  0.81882321  0.66806445  0.13909603    -0.03600
C469        C  0.79545341  0.66940171  0.12283937     0.05000
C470        C  0.79713505  0.64571776  0.10709278     0.03100
H471        H  0.82438882  0.68277280  0.15448897     0.08200
H472        H  0.78209250  0.63909770  0.09234552     0.07100
N473        N  0.84998697  0.36624509  0.08741882    -0.27300
N474        N  0.87486268  0.37557693  0.09560085    -0.35200
C475        C  0.88382808  0.39616897  0.07937735     0.01000
C476        C  0.86345774  0.40019744  0.06030882     0.07100
C477        C  0.84219936  0.38107025  0.06608835    -0.06000
H478        H  0.90357626  0.40754598  0.08147940     0.07700
H479        H  0.82288165  0.37760644  0.05516937     0.08900
Cu480      Cu  0.89558600  0.35993608  0.12839516     0.44200
Cu481      Cu  0.82923567  0.33170287  0.10373981     0.42000
Cu482      Cu  0.86839016  0.29360918  0.15342672     0.43900
N483        N  0.91262561  0.33909920  0.16053029    -0.34700
N484        N  0.90349052  0.31418200  0.16883968    -0.28900
C485        C  0.91961979  0.30570584  0.18908643    -0.05000
C486        C  0.93952786  0.32648371  0.19400240     0.07200
C487        C  0.93445663  0.34741229  0.17562604     0.01000
H488        H  0.91667856  0.28613301  0.19978025     0.08600
H489        H  0.94605572  0.36698906  0.17311531     0.07700
N490        N  0.83097284  0.27887711  0.13696489    -0.36100
N491        N  0.81632357  0.29310752  0.11923484    -0.28300
C492        C  0.79321000  0.27801838  0.11272270    -0.03600
C493        C  0.79351204  0.25296107  0.12678373     0.05000
C494        C  0.81757259  0.25435676  0.14218633     0.03100
H495        H  0.77752987  0.28461024  0.09852903     0.08200
H496        H  0.82462320  0.23897285  0.15646368     0.07100
C497        C  0.22150308  0.20626416  0.12184886    -0.05800
C498        C  0.23187783  0.23361154  0.12667025     0.00100
C499        C  0.26128017  0.23773525  0.13059607    -0.08400
C500        C  0.27940685  0.21411971  0.12913141    -0.05800
C501        C  0.26903333  0.18676561  0.12429546     0.00100
C502        C  0.23962084  0.18264965  0.12037745    -0.08400
C503        C  0.22741987  0.15372978  0.11389942     0.62000
H504        H  0.19892819  0.20359789  0.11907731     0.12700
H505        H  0.30198119  0.21679606  0.13189748     0.12700
C506        C  0.27344175  0.26667993  0.13703558     0.62300
F507        F  0.19911372  0.15537333  0.10701600    -0.22900
F508        F  0.22959298  0.13610705  0.13539604    -0.20200
F509        F  0.24194601  0.14193838  0.09308105    -0.19900
F510        F  0.25889385  0.27848975  0.15783333    -0.20000
F511        F  0.27123067  0.28426364  0.11551228    -0.20300
F512        F  0.30174805  0.26508204  0.14392563    -0.23000
C513        C  0.74410601  0.23731684  0.13318180    -0.05800
C514        C  0.77189462  0.23028167  0.12605206     0.00100
C515        C  0.77812044  0.20242934  0.11746412    -0.08400
C516        C  0.75615882  0.18228146  0.11682250    -0.05800
C517        C  0.72838308  0.18930174  0.12399997     0.00100
C518        C  0.72212877  0.21718776  0.13247682    -0.08400
C519        C  0.69260021  0.22549651  0.14133098     0.62000
H520        H  0.73979809  0.25881421  0.13943460     0.12700
H521        H  0.76046802  0.16078360  0.11057110     0.12700
C522        C  0.80758427  0.19418766  0.10837459     0.62300
F523        F  0.69204388  0.25244682  0.15200129    -0.22900
F524        F  0.68309144  0.20673536  0.16019220    -0.20200
F525        F  0.67431309  0.22510239  0.12023067    -0.19900
F526        F  0.82600082  0.19429775  0.12937978    -0.20000
F527        F  0.81700860  0.21315768  0.08965340    -0.20300
F528        F  0.80802728  0.16737197  0.09741597    -0.23000
C529        C  0.72086209  0.21582649  0.37490561    -0.05800
C530        C  0.72994748  0.18752903  0.37444651     0.00100
C531        C  0.75936086  0.18143437  0.37488608    -0.08400
C532        C  0.77862017  0.20415430  0.37535572    -0.05800
C533        C  0.76953798  0.23245374  0.37579201     0.00100
C534        C  0.74012122  0.23854852  0.37539533    -0.08400
C535        C  0.72882941  0.26869958  0.37482558     0.62000
H536        H  0.69831772  0.22000850  0.37481950     0.12700
H537        H  0.80116362  0.19996722  0.37544458     0.12700
C538        C  0.77064390  0.15128223  0.37554382     0.62300
F539        F  0.70020250  0.26947239  0.36906498    -0.22900
F540        F  0.74277847  0.28436604  0.35592143    -0.20200
F541        F  0.73254380  0.28119410  0.39901072    -0.19900
F542        F  0.76696377  0.13871419  0.35138750    -0.20000
F543        F  0.75665829  0.13567772  0.39446921    -0.20300
F544        F  0.79926076  0.15051921  0.38134725    -0.23000
C545        C  0.22210485  0.20348899  0.38286045    -0.05800
C546        C  0.22943056  0.23129199  0.37598331     0.00100
C547        C  0.25742148  0.23754195  0.36792374    -0.08400
C548        C  0.27743164  0.21549851  0.36743889    -0.05800
C549        C  0.27010646  0.18770078  0.37431359     0.00100
C550        C  0.24212750  0.18144987  0.38239739    -0.08400
C551        C  0.23367316  0.15191592  0.39124497     0.62000
H552        H  0.20050384  0.19924579  0.38878611     0.12700
H553        H  0.29903451  0.21973867  0.36151653     0.12700
C554        C  0.26592558  0.26708675  0.35914997     0.62300
F555        F  0.20651122  0.15137205  0.40138965    -0.22900
F556        F  0.25200598  0.14255159  0.41052440    -0.20200
F557        F  0.23457977  0.13346631  0.37028988    -0.19900
F558        F  0.26509814  0.28546044  0.38016401    -0.20000
F559        F  0.24758862  0.27656166  0.33992130    -0.20300
F560        F  0.29307434  0.26760664  0.34897302    -0.23000
C561        C  0.27801202  0.70615395  0.13107179    -0.05800
C562        C  0.26874233  0.73278131  0.12238294     0.00100
C563        C  0.24004363  0.73665061  0.11522212    -0.08400
C564        C  0.22134521  0.71353427  0.11731980    -0.05800
C565        C  0.23061693  0.68691026  0.12600999     0.00100
C566        C  0.25929731  0.68305748  0.13322970    -0.08400
C567        C  0.26984144  0.65492085  0.14382494     0.62000
H568        H  0.30007656  0.70369535  0.13638287     0.12700
H569        H  0.19927627  0.71599205  0.11202410     0.12700
C570        C  0.22943534  0.76485297  0.10483713     0.62300
F571        F  0.29766335  0.65655745  0.15221142    -0.22900
F572        F  0.26828986  0.63449989  0.12451603    -0.20200
F573        F  0.25338642  0.64668875  0.16489092    -0.19900
F574        F  0.24573571  0.77320412  0.08371046    -0.20000
F575        F  0.23114368  0.78515300  0.12424351    -0.20300
F576        F  0.20154525  0.76328587  0.09663108    -0.23000
C577        C  0.74600942  0.72993950  0.10538907    -0.05800
C578        C  0.72722948  0.72918128  0.12660445     0.00100
C579        C  0.73079078  0.70871554  0.14658250    -0.08400
C580        C  0.75354899  0.68959926  0.14475792    -0.05800
C581        C  0.77234684  0.69037309  0.12355401     0.00100
C582        C  0.76879341  0.71085300  0.10358320    -0.08400
C583        C  0.78943586  0.71291050  0.08091196     0.62000
H584        H  0.74280521  0.74583840  0.09037305     0.12700
H585        H  0.75675803  0.67370973  0.15978136     0.12700
C586        C  0.71023833  0.70677801  0.16933065     0.62300
F587        F  0.78344971  0.73570998  0.06476726    -0.22900
F588        F  0.78815697  0.68851841  0.06601331    -0.20200
F589        F  0.81664995  0.71624889  0.09042614    -0.19900
F590        F  0.68297983  0.70343407  0.15992802    -0.20000
F591        F  0.71161176  0.73123903  0.18412692    -0.20300
F592        F  0.71626849  0.68404621  0.18554253    -0.23000
C593        C  0.27208441  0.70902238  0.35621924    -0.05800
C594        C  0.27154732  0.73037542  0.37525261     0.00100
C595        C  0.24980260  0.73081165  0.39426519    -0.08400
C596        C  0.22903646  0.70947763  0.39363637    -0.05800
C597        C  0.22953456  0.68816422  0.37456812     0.00100
C598        C  0.25130846  0.68769287  0.35558571    -0.08400
C599        C  0.25253868  0.66462716  0.33495619     0.62000
H600        H  0.28894493  0.70923254  0.34185805     0.12700
H601        H  0.21216902  0.70927299  0.40799078     0.12700
C602        C  0.24855511  0.75387889  0.41489295     0.62300
F603        F  0.27615718  0.66725976  0.31910998    -0.22900
F604        F  0.22873415  0.66608569  0.31926383    -0.20200
F605        F  0.25356835  0.63835043  0.34692606    -0.19900
F606        F  0.24735877  0.78014293  0.40291454    -0.20000
F607        F  0.27242614  0.75253573  0.43050773    -0.20300
F608        F  0.22501385  0.75114812  0.43082281    -0.23000
C609        C  0.72220998  0.70468083  0.36782138    -0.05800
C610        C  0.73057078  0.73239547  0.37394569     0.00100
C611        C  0.75889816  0.73792103  0.38142276    -0.08400
C612        C  0.77816048  0.71523493  0.38212779    -0.05800
C613        C  0.76979108  0.68752092  0.37602388     0.00100
C614        C  0.74147986  0.68200112  0.36850492    -0.08400
C615        C  0.73183822  0.65255245  0.36052720     0.62000
H616        H  0.70035039  0.70098896  0.36239744     0.12700
H617        H  0.80002110  0.71891932  0.38755246     0.12700
C618        C  0.76857809  0.76738145  0.38931993     0.62300
F619        F  0.70458290  0.65273697  0.35056470    -0.22900
F620        F  0.73223314  0.63475068  0.38199538    -0.20200
F621        F  0.74960667  0.64188894  0.34140186    -0.19900
F622        F  0.75087284  0.77810020  0.40846746    -0.20000
F623        F  0.76813326  0.78512992  0.36781526    -0.20300
F624        F  0.79586444  0.76720658  0.39921230    -0.23000
O625        O  0.53124416  0.84770331  0.97073085    -0.73000
O626        O  0.47023206  0.84779484  0.52563867    -0.73900
O627        O  0.52992074  0.84708237  0.52715596    -0.62600
O628        O  0.47167538  0.84751808  0.96915820    -0.71000
O629        O  0.47142749  0.80047391  0.96995115    -0.70500
O630        O  0.52979982  0.80003720  0.52699770    -0.61800
O631        O  0.46935402  0.80075189  0.52560386    -0.74300
O632        O  0.53172093  0.80064956  0.97125975    -0.73100
Cu633      Cu  0.50074868  0.84887888  0.49828503     1.04600
Cu634      Cu  0.50074981  0.79919574  0.99839427     1.04300
C635        C  0.54086129  0.82418581  0.96219676     0.93200
C636        C  0.46029661  0.82446525  0.53433847     0.92400
C637        C  0.53890642  0.82346850  0.53621752     0.84500
C638        C  0.46251788  0.82384925  0.96042004     0.90800
N639        N  0.59710220  0.81207528  0.91492500    -0.27300
N640        N  0.58779446  0.83709313  0.90704486    -0.35200
C641        C  0.56667162  0.84538184  0.92294020     0.01000
C642        C  0.56227131  0.82436717  0.94139149     0.07100
C643        C  0.58181173  0.80350217  0.93567920    -0.06000
H644        H  0.55500872  0.86499106  0.92089327     0.07700
H645        H  0.58506654  0.78380924  0.94611032     0.08900
Cu646      Cu  0.60353650  0.85817833  0.87437627     0.44200
Cu647      Cu  0.63148425  0.79179214  0.89839460     0.42000
Cu648      Cu  0.66850852  0.82972359  0.84731561     0.43900
N649        N  0.62313181  0.87413704  0.84102658    -0.34700
N650        N  0.64754466  0.86448414  0.83203150    -0.28900
C651        C  0.65515546  0.87969724  0.81093947    -0.05000
C652        C  0.63429982  0.89951930  0.80612244     0.07200
C653        C  0.61425382  0.89542499  0.82548688     0.01000
H654        H  0.67420662  0.87619557  0.79964735     0.08600
H655        H  0.59495041  0.90735644  0.82837454     0.07700
N656        N  0.68291062  0.79226010  0.86362005    -0.36100
N657        N  0.66911717  0.77825302  0.88204007    -0.28300
C658        C  0.68384999  0.75490978  0.88842386    -0.03600
C659        C  0.70819034  0.75436552  0.87349054     0.05000
C660        C  0.70677752  0.77813381  0.85770602     0.03100
H661        H  0.67747758  0.73962904  0.90307791     0.08200
H662        H  0.72163210  0.78449710  0.84272481     0.07100
N663        N  0.40615313  0.81040723  0.91346324    -0.27300
N664        N  0.41557901  0.83504882  0.90476724    -0.35200
C665        C  0.43703346  0.84373537  0.92015095     0.01000
C666        C  0.44151940  0.82336276  0.93918801     0.07100
C667        C  0.42172805  0.80245180  0.93426274    -0.06000
H668        H  0.44858462  0.86332875  0.91757215     0.07700
H669        H  0.41827666  0.78331783  0.94549171     0.08900
Cu670      Cu  0.39860985  0.85542739  0.87232659     0.44200
Cu671      Cu  0.37068816  0.79029850  0.89828565     0.42000
Cu672      Cu  0.33202229  0.82793924  0.84746477     0.43900
N673        N  0.37755005  0.87196440  0.84007694    -0.34700
N674        N  0.35263436  0.86285398  0.83178732    -0.28900
C675        C  0.34439516  0.87872247  0.81125613    -0.05000
C676        C  0.36537320  0.89837613  0.80615077     0.07200
C677        C  0.38609301  0.89346980  0.82470551     0.01000
H678        H  0.32489637  0.87573708  0.80049072     0.08600
H679        H  0.40573921  0.90494818  0.82712289     0.07700
N680        N  0.31822070  0.79046830  0.86446166    -0.36100
N681        N  0.33241270  0.77664170  0.88279855    -0.28300
C682        C  0.31780912  0.75328954  0.88957322    -0.03600
C683        C  0.29332449  0.75250098  0.87482483     0.05000
C684        C  0.29428503  0.77621181  0.85900389     0.03100
H685        H  0.32447749  0.73809133  0.90419014     0.08200
H686        H  0.27872231  0.78266204  0.84464657     0.07100
N687        N  0.64682881  0.86280563  0.66600822    -0.27300
N688        N  0.62242672  0.87263580  0.65713077    -0.35200
C689        C  0.61431071  0.89460430  0.67213800     0.01000
C690        C  0.63482681  0.89898089  0.69103727     0.07100
C691        C  0.65519472  0.87857886  0.68650995    -0.06000
H692        H  0.59506810  0.90666481  0.66932445     0.07700
H693        H  0.67428325  0.87493374  0.69772867     0.08900
Cu694      Cu  0.60166827  0.85594732  0.62471159     0.44200
Cu695      Cu  0.66644702  0.82698649  0.65138524     0.42000
Cu696      Cu  0.62797889  0.78845420  0.60136089     0.43900
N697        N  0.58523346  0.83500827  0.59228184    -0.34700
N698        N  0.59391703  0.80970020  0.58459338    -0.28900
C699        C  0.57861467  0.80164500  0.56365297    -0.05000
C700        C  0.55977958  0.82312191  0.55759530     0.07200
C701        C  0.56457248  0.84396631  0.57609547     0.01000
H702        H  0.58148740  0.78191815  0.55321158     0.08600
H703        H  0.55361711  0.86400486  0.57787628     0.07700
N704        N  0.66573152  0.77447670  0.61788239    -0.36100
N705        N  0.67989541  0.78883605  0.63584941    -0.28300
C706        C  0.70378206  0.77475534  0.64183377    -0.03600
C707        C  0.70459973  0.75036132  0.62700438     0.05000
C708        C  0.68032041  0.75085182  0.61191127     0.03100
H709        H  0.71945943  0.78185127  0.65580640     0.08200
H710        H  0.67391363  0.73538894  0.59745806     0.07100
N711        N  0.40206290  0.81363785  0.57994371    -0.27300
N712        N  0.41308655  0.83725206  0.58947615    -0.35200
C713        C  0.43518137  0.84496930  0.57442309     0.01000
C714        C  0.43847010  0.82498829  0.55483691     0.07100
C715        C  0.41722382  0.80538548  0.55898532    -0.06000
H716        H  0.44826494  0.86341428  0.57782801     0.07700
H717        H  0.41278338  0.78675428  0.54736524     0.08900
Cu718      Cu  0.39821258  0.85730981  0.62315332     0.44200
Cu719      Cu  0.36596442  0.79434551  0.59481910     0.42000
Cu720      Cu  0.33102889  0.83097224  0.64758947     0.43900
N721        N  0.37798743  0.87339621  0.65625491    -0.34700
N722        N  0.35283570  0.86461589  0.66423972    -0.28900
C723        C  0.34485277  0.87998055  0.68513861    -0.05000
C724        C  0.36616861  0.89901922  0.69090203     0.07200
C725        C  0.38691195  0.89424315  0.67227047     0.01000
H726        H  0.32515018  0.87717887  0.69561113     0.08600
H727        H  0.40672293  0.90550560  0.67015203     0.07700
N728        N  0.31520275  0.79434818  0.63051891    -0.36100
N729        N  0.32826224  0.78061929  0.61147677    -0.28300
C730        C  0.31346341  0.75708645  0.60565578    -0.03600
C731        C  0.28980978  0.75617087  0.62158305     0.05000
C732        C  0.29172860  0.77995470  0.63728266     0.03100
H733        H  0.31963276  0.74160320  0.59113366     0.08200
H734        H  0.27765405  0.78587758  0.65305049     0.07100
O735        O  0.65809716  0.99011819  0.77625537    -0.73000
O736        O  0.65835787  0.92946976  0.72093696    -0.73900
O737        O  0.65906034  0.98971034  0.72066705    -0.62600
O738        O  0.65777921  0.92984205  0.77630135    -0.71000
O739        O  0.61076169  0.93038685  0.77637764    -0.70500
O740        O  0.61205410  0.98979938  0.71977363    -0.61800
O741        O  0.61135118  0.93021010  0.72021952    -0.74300
O742        O  0.61108682  0.99002570  0.77612379    -0.73100
Cu743      Cu  0.65995690  0.95979833  0.74856853     1.04600
Cu744      Cu  0.60965483  0.96015210  0.74810251     1.04300
C745        C  0.63453147  0.99924061  0.78519645     0.93200
C746        C  0.63485340  0.92053209  0.71171720     0.92400
C747        C  0.63579401  0.99877774  0.71109661     0.84500
C748        C  0.63420422  0.92088262  0.78526915     0.90800
O749        O  0.34267288  0.92937757  0.72096350    -0.73000
O750        O  0.34224031  0.98973894  0.77657719    -0.73900
O751        O  0.34256939  0.98965863  0.72118561    -0.62600
O752        O  0.34214856  0.92925447  0.77641461    -0.71000
O753        O  0.38915977  0.92950764  0.77697953    -0.70500
O754        O  0.38958857  0.98948249  0.72103695    -0.61800
O755        O  0.38923966  0.98932401  0.77719823    -0.74300
O756        O  0.38967390  0.92972885  0.72079994    -0.73100
Cu757      Cu  0.34077802  0.95950691  0.74878866     1.04600
Cu758      Cu  0.39107431  0.95950949  0.74903331     1.04300
C759        C  0.36620755  0.92032114  0.71190694     0.93200
C760        C  0.36568848  0.99887506  0.78575599     0.92400
C761        C  0.36606196  0.99883659  0.71221496     0.84500
C762        C  0.36557561  0.92001518  0.78551817     0.90800
O763        O  0.46956737  0.07106040  0.97076035    -0.73000
O764        O  0.52876946  0.06997784  0.52674795    -0.73900
O765        O  0.46907207  0.07068789  0.52684366    -0.62600
O766        O  0.52925680  0.07005506  0.97091008    -0.71000
O767        O  0.53040860  0.11709742  0.97162297    -0.70500
O768        O  0.46893444  0.11775233  0.52659384    -0.61800
O769        O  0.52934476  0.11703498  0.52683948    -0.74300
O770        O  0.47003843  0.11811335  0.97118146    -0.73100
Cu771      Cu  0.49933717  0.06873561  0.99888022     1.04600
Cu772      Cu  0.50004443  0.11908382  0.99909814     1.04300
C773        C  0.46058116  0.09478700  0.96201569     0.93200
C774        C  0.53847044  0.09335829  0.53556947     0.92400
C775        C  0.45970689  0.09425141  0.53557919     0.84500
C776        C  0.53924183  0.09350618  0.96250312     0.90800
N777        N  0.35309863  0.05643023  0.83170409    -0.27300
N778        N  0.37745560  0.04663292  0.84069838    -0.35200
C779        C  0.38586000  0.02486156  0.82555978     0.01000
C780        C  0.36555292  0.02050843  0.80644722     0.07100
C781        C  0.34502393  0.04079372  0.81099167    -0.06000
H782        H  0.40508774  0.01281604  0.82850662     0.07700
H783        H  0.32595650  0.04436039  0.79972083     0.08900
Cu784      Cu  0.39747148  0.06304146  0.87366820     0.44200
Cu785      Cu  0.33317388  0.09187486  0.84693703     0.42000
Cu786      Cu  0.37064366  0.12991989  0.89829951     0.43900
N787        N  0.41364718  0.08359617  0.90644888    -0.34700
N788        N  0.40482614  0.10870351  0.91455142    -0.28900
C789        C  0.42027074  0.11663315  0.93543340    -0.05000
C790        C  0.43936210  0.09526777  0.94100249     0.07200
C791        C  0.43455545  0.07462262  0.92232504     0.01000
H792        H  0.41737230  0.13620999  0.94610788     0.08600
H793        H  0.44575019  0.05476386  0.92014746     0.07700
N794        N  0.33283253  0.14344715  0.88190449    -0.36100
N795        N  0.31904905  0.12933015  0.86353034    -0.28300
C796        C  0.29491316  0.14310346  0.85785368    -0.03600
C797        C  0.29328958  0.16678317  0.87363566     0.05000
C798        C  0.31777912  0.16658112  0.88842552     0.03100
H799        H  0.27980090  0.13641478  0.84320376     0.08200
H800        H  0.32395354  0.18183539  0.90315479     0.07100
N801        N  0.59726737  0.10563260  0.91713942    -0.27300
N802        N  0.58707307  0.08155665  0.90778658    -0.35200
C803        C  0.56511065  0.07332039  0.92274506     0.01000
C804        C  0.56105607  0.09340774  0.94206838     0.07100
C805        C  0.58168366  0.11363867  0.93788662    -0.06000
H806        H  0.55266871  0.05441242  0.91946151     0.07700
H807        H  0.58544351  0.13252622  0.94936149     0.08900
Cu808      Cu  0.60251611  0.06133618  0.87448494     0.44200
Cu809      Cu  0.63282312  0.12599584  0.90253583     0.42000
Cu810      Cu  0.66654712  0.09069419  0.84813159     0.43900
N811        N  0.62240186  0.04548612  0.84117735    -0.34700
N812        N  0.64672116  0.05555584  0.83240086    -0.28900
C813        C  0.65487475  0.04050158  0.81137614    -0.05000
C814        C  0.63441703  0.02034547  0.80632049     0.07200
C815        C  0.61407970  0.02408574  0.82553382     0.01000
H816        H  0.67394464  0.04441552  0.80022845     0.08600
H817        H  0.59490692  0.01188740  0.82818564     0.07700
N818        N  0.68185832  0.12742742  0.86504118    -0.36100
N819        N  0.66982838  0.14027198  0.88512927    -0.28300
C820        C  0.68524331  0.16323281  0.89142491    -0.03600
C821        C  0.70818749  0.16478429  0.87459327     0.05000
C822        C  0.70500002  0.14199352  0.85782313     0.03100
H823        H  0.68015432  0.17775204  0.90711214     0.08200
H824        H  0.71781542  0.13672271  0.84104296     0.07100
N825        N  0.59658695  0.10526646  0.58095083    -0.27300
N826        N  0.58746757  0.08033583  0.58924036    -0.35200
C827        C  0.56555192  0.07208777  0.57422732     0.01000
C828        C  0.56040234  0.09307346  0.55593093     0.07100
C829        C  0.58035643  0.11381923  0.56079978    -0.06000
H830        H  0.55395124  0.05251215  0.57674047     0.07700
H831        H  0.58326828  0.13341175  0.55013006     0.08900
Cu832      Cu  0.60457173  0.05940102  0.62127405     0.44200
Cu833      Cu  0.63180695  0.12573350  0.59624422     0.42000
Cu834      Cu  0.67090184  0.08759687  0.64593858     0.43900
N835        N  0.62517845  0.04384006  0.65414671    -0.34700
N836        N  0.65003682  0.05318103  0.66236154    -0.28900
C837        C  0.65773503  0.03844390  0.68376961    -0.05000
C838        C  0.63643674  0.01936470  0.68955930     0.07200
C839        C  0.61613564  0.02332699  0.67041797     0.01000
H840        H  0.67703201  0.04191775  0.69471708     0.08600
H841        H  0.59638976  0.01195098  0.66829265     0.07700
N842        N  0.68394504  0.12609813  0.63034092    -0.36100
N843        N  0.66932395  0.14034328  0.61260167    -0.28300
C844        C  0.68277639  0.16482916  0.60735858    -0.03600
C845        C  0.70683839  0.16619272  0.62276451     0.05000
C846        C  0.70708912  0.14114542  0.63684168     0.03100
H847        H  0.67573619  0.18022708  0.59309069     0.08200
H848        H  0.72272865  0.13455621  0.65107456     0.07100
N849        N  0.40210252  0.10620813  0.58147662    -0.27300
N850        N  0.41289478  0.08246031  0.59097016    -0.35200
C851        C  0.43484097  0.07443198  0.57593690     0.01000
C852        C  0.43827322  0.09432308  0.55634059     0.07100
C853        C  0.41732015  0.11426344  0.56049201    -0.06000
H854        H  0.44757992  0.05571551  0.57925653     0.07700
H855        H  0.41297435  0.13284035  0.54873626     0.08900
Cu856      Cu  0.39772894  0.06226001  0.62417349     0.44200
Cu857      Cu  0.36583282  0.12537654  0.59612837     0.42000
Cu858      Cu  0.33018066  0.08789123  0.64805795     0.43900
N859        N  0.37745661  0.04592630  0.65684879    -0.34700
N860        N  0.35217284  0.05441799  0.66470852    -0.28900
C861        C  0.34429979  0.03894383  0.68556371    -0.05000
C862        C  0.36585375  0.02018066  0.69135451     0.07200
C863        C  0.38659288  0.02516864  0.67283553     0.01000
H864        H  0.32452950  0.04149093  0.69598120     0.08600
H865        H  0.40655043  0.01414546  0.67077326     0.07700
N866        N  0.31445589  0.12458887  0.63111660    -0.36100
N867        N  0.32770162  0.13853765  0.61231992    -0.28300
C868        C  0.31290121  0.16207454  0.60654004    -0.03600
C869        C  0.28904970  0.16283329  0.62225192     0.05000
C870        C  0.29092040  0.13890078  0.63783234     0.03100
H871        H  0.31927555  0.17777117  0.59227097     0.08200
H872        H  0.27704052  0.13296260  0.65372794     0.07100
O873        O  0.96978714  0.57208601  0.72300887    -0.73000
O874        O  0.02806448  0.57214985  0.78081276    -0.73900
O875        O  0.96848532  0.57221427  0.77919514    -0.62600
O876        O  0.02949231  0.57148918  0.72458438    -0.71000
O877        O  0.03030795  0.61853373  0.72463680    -0.70500
O878        O  0.96817355  0.61926755  0.77876774    -0.61800
O879        O  0.02849340  0.61919379  0.78011530    -0.74300
O880        O  0.96985990  0.61912993  0.72315794    -0.73100
Cu881      Cu  0.99893486  0.57034528  0.75190764     1.04600
Cu882      Cu  0.99919918  0.62067821  0.75164823     1.04300
C883        C  0.96080121  0.59568595  0.71391845     0.93200
C884        C  0.03732379  0.59576083  0.78959084     0.92400
C885        C  0.95894689  0.59574098  0.78778502     0.84500
C886        C  0.03943640  0.59483778  0.71593190     0.90800
O887        O  0.03038389  0.34839136  0.77926768    -0.73000
O888        O  0.97059986  0.34999980  0.72321219    -0.73900
O889        O  0.97067607  0.34946506  0.77923539    -0.62600
O890        O  0.03029788  0.34886903  0.72312530    -0.71000
O891        O  0.03012665  0.30180457  0.72333747    -0.70500
O892        O  0.96946730  0.30242708  0.77840430    -0.61800
O893        O  0.96973738  0.30294656  0.72312260    -0.74300
O894        O  0.02984606  0.30134066  0.77876616    -0.73100
Cu895      Cu  0.00055019  0.35083726  0.75121727     1.04600
Cu896      Cu  0.99978637  0.30049051  0.75088810     1.04300
C897        C  0.03935493  0.32463527  0.78795683     0.93200
C898        C  0.96074655  0.32667538  0.71440279     0.92400
C899        C  0.96065962  0.32600061  0.78758223     0.84500
C900        C  0.03950228  0.32525478  0.71436561     0.90800
O901        O  0.15731353  0.49045172  0.52933800    -0.73000
O902        O  0.15749983  0.42951233  0.97350019    -0.73900
O903        O  0.15764978  0.49000506  0.97354630    -0.62600
O904        O  0.15758302  0.43014382  0.52932980    -0.71000
O905        O  0.11056500  0.43019682  0.52952193    -0.70500
O906        O  0.11063980  0.48981565  0.97291924    -0.61800
O907        O  0.11050256  0.42999128  0.97277690    -0.74300
O908        O  0.11031521  0.48995173  0.52960071    -0.73100
Cu909      Cu  0.15892525  0.45981051  0.00123134     1.04600
Cu910      Cu  0.10863029  0.45984888  0.00089842     1.04300
C911        C  0.13377365  0.49947333  0.53841196     0.93200
C912        C  0.13406175  0.42038460  0.96429199     0.92400
C913        C  0.13425045  0.49926459  0.96439940     0.84500
C914        C  0.13412327  0.42093577  0.53835343     0.90800
N915        N  0.14736275  0.55631396  0.91804210    -0.27300
N916        N  0.12236734  0.54733423  0.90983126    -0.35200
C917        C  0.11375995  0.52588790  0.92524274     0.01000
C918        C  0.13451350  0.52087990  0.94374190     0.07100
C919        C  0.15558213  0.54041513  0.93856158    -0.06000
H920        H  0.09404162  0.51451790  0.92289110     0.07700
H921        H  0.17513342  0.54330105  0.94926867     0.08900
Cu922      Cu  0.10126645  0.56392849  0.87762157     0.44200
Cu923      Cu  0.16813846  0.59110075  0.90228740     0.42000
Cu924      Cu  0.12957944  0.62873619  0.85142203     0.43900
N925        N  0.08433494  0.58431448  0.84515994    -0.34700
N926        N  0.09393338  0.60885077  0.83637384    -0.28900
C927        C  0.07835874  0.61687553  0.81559881    -0.05000
C928        C  0.05837619  0.59612016  0.81078124     0.07200
C929        C  0.06275894  0.57576028  0.82985417     0.01000
H930        H  0.08193334  0.63594788  0.80431348     0.08600
H931        H  0.05105490  0.55627043  0.83251134     0.07700
N932        N  0.16790989  0.64230162  0.86684188    -0.36100
N933        N  0.18207231  0.62848464  0.88520379    -0.28300
C934        C  0.20603412  0.64271120  0.89063824    -0.03600
C935        C  0.20703688  0.66638965  0.87477435     0.05000
C936        C  0.18255257  0.66561390  0.86002822     0.03100
H937        H  0.22157310  0.63627657  0.90502349     0.08200
H938        H  0.17589801  0.68080749  0.84540181     0.07100
N939        N  0.14662889  0.36264560  0.91853250    -0.27300
N940        N  0.12238970  0.37256593  0.90938208    -0.35200
C941        C  0.11400887  0.39441573  0.92443402     0.01000
C942        C  0.13421326  0.39869484  0.94365213     0.07100
C943        C  0.15465527  0.37828016  0.93926366    -0.06000
H944        H  0.09487498  0.40657081  0.92135084     0.07700
H945        H  0.17363325  0.37463742  0.95064243     0.08900
Cu946      Cu  0.10250485  0.35622986  0.87631461     0.44200
Cu947      Cu  0.16648475  0.32710572  0.90340473     0.42000
Cu948      Cu  0.12894012  0.28914131  0.85196254     0.43900
N949        N  0.08631101  0.33571174  0.84352362    -0.34700
N950        N  0.09496375  0.31050831  0.83552602    -0.28900
C951        C  0.07951451  0.30261068  0.81463464    -0.05000
C952        C  0.06059079  0.32409528  0.80895722     0.07200
C953        C  0.06550998  0.34477739  0.82757467     0.01000
H954        H  0.08227926  0.28296069  0.80404474     0.08600
H955        H  0.05444030  0.36471548  0.82967901     0.07700
N956        N  0.16678692  0.27564095  0.86828946    -0.36100
N957        N  0.18061221  0.28972707  0.88665884    -0.28300
C958        C  0.20481883  0.27600469  0.89218619    -0.03600
C959        C  0.20643525  0.25239642  0.87631230     0.05000
C960        C  0.18187372  0.25257829  0.86163180     0.03100
H961        H  0.21998405  0.28267568  0.90679694     0.08200
H962        H  0.17566970  0.23735923  0.84688213     0.07100
N963        N  0.14793647  0.36539389  0.58595377    -0.27300
N964        N  0.12253896  0.37375479  0.59361937    -0.35200
C965        C  0.11347308  0.39452060  0.57761362     0.01000
C966        C  0.13436397  0.39965840  0.55927879     0.07100
C967        C  0.15594826  0.38097138  0.56520239    -0.06000
H968        H  0.09341888  0.40540393  0.57950223     0.07700
H969        H  0.17580215  0.37849937  0.55490619     0.08900
Cu970      Cu  0.10192216  0.35719377  0.62601018     0.44200
Cu971      Cu  0.16980534  0.33185015  0.60265105     0.42000
Cu972      Cu  0.13361328  0.29409330  0.65415843     0.43900
N973        N  0.08646568  0.33692674  0.65906262    -0.34700
N974        N  0.09720447  0.31317737  0.66860156    -0.28900
C975        C  0.08189063  0.30513076  0.68952995    -0.05000
C976        C  0.06092977  0.32508179  0.69359922     0.07200
C977        C  0.06445614  0.34496718  0.67401059     0.01000
H978        H  0.08621199  0.28658639  0.70133687     0.08600
H979        H  0.05177714  0.36372064  0.67067223     0.07700
N980        N  0.17190932  0.28102817  0.63823614    -0.36100
N981        N  0.18532707  0.29504870  0.61958924    -0.28300
C982        C  0.20890652  0.28074295  0.61299657    -0.03600
C983        C  0.21064258  0.25675031  0.62851649     0.05000
C984        C  0.18665106  0.25746287  0.64404981     0.03100
H985        H  0.22289779  0.28672164  0.59719966     0.08200
H986        H  0.18013749  0.24170936  0.65821122     0.07100
N987        N  0.14700005  0.55538527  0.58593787    -0.27300
N988        N  0.12196459  0.54640641  0.59404425    -0.35200
C989        C  0.11311111  0.52548140  0.57808625     0.01000
C990        C  0.13378159  0.52084739  0.55935985     0.07100
C991        C  0.15498467  0.54006234  0.56500730    -0.06000
H992        H  0.09341056  0.51405248  0.58032200     0.07700
H993        H  0.17461677  0.54299016  0.55445159     0.08900
Cu994      Cu  0.10181496  0.56229188  0.62725039     0.44200
Cu995      Cu  0.16865088  0.58916480  0.60257694     0.42000
Cu996      Cu  0.13384484  0.62536450  0.65569141     0.43900
N997        N  0.08689915  0.58221778  0.66096030    -0.34700
N998        N  0.09782138  0.60586179  0.67053189    -0.28900
C999        C  0.08256956  0.61404192  0.69145845    -0.05000
C1000       C  0.06137084  0.59436574  0.69553471     0.07200
C1001       C  0.06478827  0.57441061  0.67595126     0.01000
H1002       H  0.08689166  0.63269576  0.70308576     0.08600
H1003       H  0.05175686  0.55594276  0.67248164     0.07700
N1004       N  0.17146997  0.63929558  0.63899173    -0.36100
N1005       N  0.18446747  0.62572434  0.61981545    -0.28300
C1006       C  0.20791028  0.64018532  0.61307714    -0.03600
C1007       C  0.20988200  0.66384692  0.62892877     0.05000
C1008       C  0.18628152  0.66279449  0.64492244     0.03100
H1009       H  0.22193730  0.63438711  0.59723379     0.08200
H1010       H  0.18016000  0.67815981  0.65956834     0.07100
O1011       O  0.88906966  0.48913807  0.97344559    -0.73000
O1012       O  0.88768457  0.42986974  0.52996407    -0.73900
O1013       O  0.88860032  0.42950098  0.97370361    -0.62600
O1014       O  0.88842466  0.48946268  0.52947897    -0.71000
O1015       O  0.84142223  0.49018363  0.52865409    -0.70500
O1016       O  0.84159101  0.42949074  0.97368090    -0.61800
O1017       O  0.84068353  0.42993554  0.52888325    -0.74300
O1018       O  0.84205342  0.48978376  0.97360627    -0.73100
Cu1019     Cu  0.89021585  0.45949611  0.50160966     1.04600
Cu1020     Cu  0.83991967  0.45985979  0.50099010     1.04300
C1021       C  0.86563003  0.49870217  0.96460527     0.93200
C1022       C  0.86390682  0.42087369  0.53854344     0.92400
C1023       C  0.86511729  0.42032831  0.96468024     0.84500
C1024       C  0.86489612  0.49910248  0.53796073     0.90800
N1025       N  0.85281209  0.36405910  0.91742600    -0.27300
N1026       N  0.87714726  0.37410168  0.90866207    -0.35200
C1027       C  0.88549486  0.39548095  0.92431683     0.01000
C1028       C  0.86516114  0.39924320  0.94353052     0.07100
C1029       C  0.84467383  0.37911577  0.93845931    -0.06000
H1030       H  0.90469475  0.40764105  0.92168236     0.07700
H1031       H  0.82560346  0.37521366  0.94960965     0.08900
Cu1032     Cu  0.89705779  0.35820880  0.87538555     0.44200
Cu1033     Cu  0.83299965  0.32891770  0.90165934     0.42000
Cu1034     Cu  0.86703465  0.29338396  0.84746293     0.43900
N1035       N  0.91266032  0.33793319  0.84217940    -0.34700
N1036       N  0.90258335  0.31378455  0.83287969    -0.28900
C1037       C  0.91825376  0.30576574  0.81219129    -0.05000
C1038       C  0.93881883  0.32606154  0.80799634     0.07200
C1039       C  0.93463073  0.34620190  0.82724703     0.01000
H1040       H  0.91458810  0.28683086  0.80075691     0.08600
H1041       H  0.94698101  0.36517702  0.83049487     0.07700
N1042       N  0.82991314  0.27922179  0.86474555    -0.36100
N1043       N  0.81776914  0.29214568  0.88473329    -0.28300
C1044       C  0.79456298  0.27762770  0.89185995    -0.03600
C1045       C  0.79145015  0.25478993  0.87513014     0.05000
C1046       C  0.81450818  0.25626226  0.85842515     0.03100
H1047       H  0.78166164  0.28295445  0.90856791     0.08200
H1048       H  0.81968347  0.24168715  0.84280635     0.07100
N1049       N  0.85237540  0.55528891  0.91802551    -0.27300
N1050       N  0.87673871  0.54559454  0.90895595    -0.35200
C1051       C  0.88557365  0.52421589  0.92441124     0.01000
C1052       C  0.86554571  0.52010906  0.94379166     0.07100
C1053       C  0.84475091  0.54002076  0.93907803    -0.06000
H1054       H  0.90483762  0.51223900  0.92146060     0.07700
H1055       H  0.82573769  0.54354985  0.95041765     0.08900
Cu1056     Cu  0.89630664  0.56164085  0.87561662     0.44200
Cu1057     Cu  0.83149735  0.59015739  0.90288792     0.42000
Cu1058     Cu  0.86845878  0.62821061  0.85182988     0.43900
N1059       N  0.91203197  0.58280614  0.84297057    -0.34700
N1060       N  0.90278219  0.60787902  0.83517606    -0.28900
C1061       C  0.91807155  0.61647357  0.81442176    -0.05000
C1062       C  0.93754420  0.59556765  0.80861531     0.07200
C1063       C  0.93310356  0.57450784  0.82701805     0.01000
H1064       H  0.91486333  0.63621277  0.80405365     0.08600
H1065       H  0.94471211  0.55485808  0.82899619     0.07700
N1066       N  0.83085150  0.64173885  0.86831216    -0.36100
N1067       N  0.81709609  0.62767231  0.88671876    -0.28300
C1068       C  0.79323518  0.64176485  0.89271733    -0.03600
C1069       C  0.79177470  0.66558263  0.87700573     0.05000
C1070       C  0.81608979  0.66509889  0.86202531     0.03100
H1071       H  0.77841559  0.63533883  0.90770502     0.08200
H1072       H  0.82241717  0.68042777  0.84739760     0.07100
N1073       N  0.90592782  0.60944162  0.66540605    -0.27300
N1074       N  0.91451564  0.58406963  0.65780743    -0.35200
C1075       C  0.93513122  0.57510281  0.67404708     0.01000
C1076       C  0.93998051  0.59600759  0.69248765     0.07100
C1077       C  0.92123420  0.61752550  0.68633208    -0.06000
H1078       H  0.94600705  0.55501201  0.67235369     0.07700
H1079       H  0.91840921  0.63729893  0.69670928     0.08900
Cu1080     Cu  0.89795763  0.56310244  0.62541652     0.44200
Cu1081     Cu  0.87192369  0.63072457  0.64860902     0.42000
Cu1082     Cu  0.83294595  0.59201468  0.59904999     0.43900
N1083       N  0.87716211  0.54658896  0.59291011    -0.34700
N1084       N  0.85269406  0.55637980  0.58414496    -0.28900
C1085       C  0.84438823  0.54077208  0.56350812    -0.05000
C1086       C  0.86486133  0.52052620  0.55877081     0.07200
C1087       C  0.88537091  0.52481828  0.57769751     0.01000
H1088       H  0.82526226  0.54442555  0.55234658     0.08600
H1089       H  0.90467688  0.51282724  0.58038961     0.07700
N1090       N  0.81966494  0.63024637  0.61458580    -0.36100
N1091       N  0.83406434  0.64470015  0.63232673    -0.28300
C1092       C  0.81961205  0.66841048  0.63829199    -0.03600
C1093       C  0.79516277  0.66885774  0.62343804     0.05000
C1094       C  0.79574457  0.64434816  0.60875542     0.03100
H1095       H  0.82622440  0.68395628  0.65258941     0.08200
H1096       H  0.77989863  0.63720579  0.59496690     0.07100
N1097       N  0.84959233  0.36625419  0.58708278    -0.27300
N1098       N  0.87422813  0.37588622  0.59558813    -0.35200
C1099       C  0.88325153  0.39651926  0.57943887     0.01000
C1100       C  0.86317069  0.40027129  0.56007039     0.07100
C1101       C  0.84201298  0.38093844  0.56560116    -0.06000
H1102       H  0.90283935  0.40811347  0.58179635     0.07700
H1103       H  0.82291305  0.37725043  0.55442079     0.08900
Cu1104     Cu  0.89464866  0.36056959  0.62865208     0.44200
Cu1105     Cu  0.82890554  0.33153329  0.60323902     0.42000
Cu1106     Cu  0.86774719  0.29405625  0.65348557     0.43900
N1107       N  0.91173001  0.33974912  0.66075259    -0.34700
N1108       N  0.90269934  0.31476387  0.66897974    -0.28900
C1109       C  0.91891377  0.30623539  0.68914185    -0.05000
C1110       C  0.93877832  0.32704239  0.69408140     0.07200
C1111       C  0.93358840  0.34805227  0.67581627     0.01000
H1112       H  0.91609445  0.28657777  0.69973070     0.08600
H1113       H  0.94515356  0.36765244  0.67332765     0.07700
N1114       N  0.83059700  0.27896157  0.63683911    -0.36100
N1115       N  0.81604988  0.29293886  0.61886767    -0.28300
C1116       C  0.79309286  0.27763859  0.61228914    -0.03600
C1117       C  0.79340577  0.25271132  0.62656040     0.05000
C1118       C  0.81729669  0.25441086  0.64215545     0.03100
H1119       H  0.77749639  0.28400865  0.59793148     0.08200
H1120       H  0.82428781  0.23922635  0.65663815     0.07100
C1121       C  0.22088370  0.20599213  0.62172461    -0.05800
C1122       C  0.23135839  0.23327771  0.62669983     0.00100
C1123       C  0.26077968  0.23724773  0.63068643    -0.08400
C1124       C  0.27880757  0.21356681  0.62911730    -0.05800
C1125       C  0.26833276  0.18628933  0.62413086     0.00100
C1126       C  0.23891445  0.18231106  0.62016466    -0.08400
C1127       C  0.22662394  0.15345459  0.61359522     0.62000
H1128       H  0.19830287  0.20342127  0.61891853     0.12700
H1129       H  0.30139010  0.21612960  0.63191897     0.12700
C1130       C  0.27308423  0.26608469  0.63730808     0.62300
F1131       F  0.19836963  0.15523883  0.60656287    -0.22900
F1132       F  0.22860129  0.13580896  0.63509502    -0.20200
F1133       F  0.24121913  0.14160571  0.59284487    -0.19900
F1134       F  0.25851168  0.27787611  0.65809933    -0.20000
F1135       F  0.27110084  0.28379138  0.61585432    -0.20300
F1136       F  0.30134636  0.26427748  0.64430967    -0.23000
C1137       C  0.74403542  0.23693511  0.63286527    -0.05800
C1138       C  0.77188003  0.22993605  0.62589955     0.00100
C1139       C  0.77824348  0.20202474  0.61755487    -0.08400
C1140       C  0.75628587  0.18187779  0.61670570    -0.05800
C1141       C  0.72842493  0.18890140  0.62360330     0.00100
C1142       C  0.72210552  0.21675865  0.63212234    -0.08400
C1143       C  0.69258023  0.22497670  0.64106260     0.62000
H1144       H  0.73964495  0.25844405  0.63903576     0.12700
H1145       H  0.76067025  0.16036857  0.61053366     0.12700
C1146       C  0.80787121  0.19369078  0.60900690     0.62300
F1147       F  0.69205667  0.25178139  0.65204090    -0.22900
F1148       F  0.68305329  0.20598707  0.65972253    -0.20200
F1149       F  0.67428943  0.22488100  0.61996473    -0.19900
F1150       F  0.82590566  0.19410553  0.63029169    -0.20000
F1151       F  0.81761505  0.21241340  0.59021662    -0.20300
F1152       F  0.80854179  0.16672189  0.59838171    -0.23000
C1153       C  0.72090513  0.21547172  0.87498556    -0.05800
C1154       C  0.73012664  0.18723080  0.87408026     0.00100
C1155       C  0.75957500  0.18128952  0.87407832    -0.08400
C1156       C  0.77871967  0.20410359  0.87469156    -0.05800
C1157       C  0.76950042  0.23234707  0.87559969     0.00100
C1158       C  0.74004974  0.23828870  0.87553941    -0.08400
C1159       C  0.72859534  0.26838284  0.87535665     0.62000
H1160       H  0.69834013  0.21953465  0.87519087     0.12700
H1161       H  0.80128355  0.20003627  0.87449190     0.12700
C1162       C  0.77102788  0.15119475  0.87405061     0.62300
F1163       F  0.69988820  0.26906286  0.86993616    -0.22900
F1164       F  0.74220869  0.28429837  0.85642040    -0.20200
F1165       F  0.73257157  0.28066627  0.89959677    -0.19900
F1166       F  0.76700193  0.13911070  0.84973013    -0.20000
F1167       F  0.75745072  0.13512456  0.89289698    -0.20300
F1168       F  0.79974497  0.15047131  0.87941856    -0.23000
C1169       C  0.22258441  0.20341484  0.88369149    -0.05800
C1170       C  0.22913614  0.23100011  0.87555729     0.00100
C1171       C  0.25667783  0.23741144  0.86639610    -0.08400
C1172       C  0.27712448  0.21576255  0.86615454    -0.05800
C1173       C  0.27057696  0.18817719  0.87430740     0.00100
C1174       C  0.24301064  0.18175348  0.88340432    -0.08400
C1175       C  0.23544979  0.15241215  0.89339972     0.62000
H1176       H  0.20129467  0.19905638  0.89045024     0.12700
H1177       H  0.29841307  0.22012419  0.85939473     0.12700
C1178       C  0.26416007  0.26670842  0.85623850     0.62300
F1179       F  0.20852409  0.15164014  0.90405520    -0.22900
F1180       F  0.25441210  0.14426497  0.91262844    -0.20200
F1181       F  0.23638970  0.13316456  0.87306194    -0.19900
F1182       F  0.26317259  0.28609411  0.87646211    -0.20000
F1183       F  0.24516301  0.27467248  0.83697226    -0.20300
F1184       F  0.29107684  0.26747910  0.84556379    -0.23000
C1185       C  0.27819587  0.70641862  0.63211755    -0.05800
C1186       C  0.26883909  0.73299979  0.62339496     0.00100
C1187       C  0.24013384  0.73676820  0.61622353    -0.08400
C1188       C  0.22148335  0.71362867  0.61845791    -0.05800
C1189       C  0.23083981  0.68704325  0.62717873     0.00100
C1190       C  0.25956239  0.68326196  0.63429647    -0.08400
C1191       C  0.27026671  0.65511721  0.64473114     0.62000
H1192       H  0.30028123  0.70402864  0.63738130     0.12700
H1193       H  0.19940162  0.71601903  0.61318183     0.12700
C1194       C  0.22949748  0.76485309  0.60558950     0.62300
F1195       F  0.29815992  0.65678993  0.65291102    -0.22900
F1196       F  0.26860313  0.63476505  0.62536860    -0.20200
F1197       F  0.25401404  0.64676781  0.66588963    -0.19900
F1198       F  0.24584776  0.77303760  0.58443836    -0.20000
F1199       F  0.23110025  0.78534363  0.62483124    -0.20300
F1200       F  0.20164048  0.76314567  0.59731497    -0.23000
C1201       C  0.75040602  0.73386662  0.60957050    -0.05800
C1202       C  0.72745886  0.72916540  0.62639301     0.00100
C1203       C  0.72680305  0.70474481  0.64241825    -0.08400
C1204       C  0.74941905  0.68542314  0.64095788    -0.05800
C1205       C  0.77236549  0.69012066  0.62413205     0.00100
C1206       C  0.77304298  0.71456688  0.60813829    -0.08400
C1207       C  0.79751037  0.71992365  0.58957337     0.62000
H1208       H  0.75037861  0.75277190  0.59753472     0.12700
H1209       H  0.74944052  0.66651438  0.65298892     0.12700
C1210       C  0.70238864  0.69945054  0.66105837     0.62300
F1211       F  0.79421372  0.74501320  0.57585241    -0.22900
F1212       F  0.79931302  0.69800820  0.57169691    -0.20200
F1213       F  0.82253309  0.72148434  0.60354994    -0.19900
F1214       F  0.67728556  0.69810107  0.64718590    -0.20000
F1215       F  0.70080966  0.72130241  0.67901951    -0.20300
F1216       F  0.70560015  0.67428261  0.67467263    -0.23000
C1217       C  0.27335632  0.70782809  0.85792198    -0.05800
C1218       C  0.27110365  0.73062988  0.87534540     0.00100
C1219       C  0.24770200  0.73246306  0.89250922    -0.08400
C1220       C  0.22699552  0.71107206  0.89166519    -0.05800
C1221       C  0.22925623  0.68826238  0.87425186     0.00100
C1222       C  0.25264305  0.68644373  0.85707050    -0.08400
C1223       C  0.25544899  0.66206221  0.83792054     0.62000
H1224       H  0.29144439  0.70700855  0.84492178     0.12700
H1225       H  0.20890594  0.71189247  0.90466353     0.12700
C1226       C  0.24487426  0.75686218  0.91163813     0.62300
F1227       F  0.28011269  0.66385921  0.82339290    -0.22900
F1228       F  0.23277007  0.66228195  0.82080022    -0.20200
F1229       F  0.25576394  0.63663221  0.85138234    -0.19900
F1230       F  0.24463535  0.78228648  0.89816558    -0.20000
F1231       F  0.26750196  0.75661771  0.92881553    -0.20300
F1232       F  0.22016263  0.75511221  0.92610107    -0.23000
C1233       C  0.72197278  0.70438438  0.86840030    -0.05800
C1234       C  0.73021912  0.73225675  0.87400644     0.00100
C1235       C  0.75854285  0.73808650  0.88128611    -0.08400
C1236       C  0.77795240  0.71553931  0.88222285    -0.05800
C1237       C  0.76971696  0.68766992  0.87658363     0.00100
C1238       C  0.74137828  0.68183382  0.86934415    -0.08400
C1239       C  0.73185140  0.65218889  0.86187635     0.62000
H1240       H  0.70010302  0.70047338  0.86314577     0.12700
H1241       H  0.79982126  0.71945525  0.88747748     0.12700
C1242       C  0.76804469  0.76772774  0.88879034     0.62300
F1243       F  0.70446328  0.65200845  0.85223093    -0.22900
F1244       F  0.73265474  0.63472103  0.88356616    -0.20200
F1245       F  0.74944798  0.64136650  0.84269275    -0.19900
F1246       F  0.75040095  0.77853160  0.90794707    -0.20000
F1247       F  0.76728108  0.78521075  0.86710989    -0.20300
F1248       F  0.79541009  0.76790720  0.89848864    -0.23000
loop_ 
_geom_bond_atom_site_label_1 
_geom_bond_atom_site_label_2 
_geom_bond_distance 
_geom_bond_site_symmetry_2 
_ccdc_geom_bond_type 
O1           C11   1.276       .  A
O1         Cu633   2.005       .  S
O2           C12   1.277       .  A
O2           Cu9   2.009   1_554  S
O3           C13   1.279       .  A
O3           Cu9   2.020   1_554  S
O4           C14   1.279       .  A
O4         Cu633   2.021       .  S
O5           C14   1.277       .  A
O5          Cu10   2.008       .  S
O6           C13   1.277       .  A
O6         Cu634   2.010   1_554  S
O7           C12   1.279       .  A
O7         Cu634   2.019   1_554  S
O8           C11   1.279       .  A
O8          Cu10   2.018       .  S
Cu9         O625   2.005       .  S
Cu9         O628   2.020       .  S
Cu9        Cu634   2.376       .  S
Cu10        O630   2.010       .  S
Cu10        O631   2.020       .  S
Cu10       Cu633   2.376       .  S
C11          C18   1.468       .  S
C12          C90   1.470       .  S
C13          C76   1.471       .  S
C14          C42   1.470       .  S
N15          N16   1.322       .  A
N15          C19   1.346       .  A
N15         Cu23   2.068       .  S
N16          C17   1.345       .  A
N16         Cu22   2.080       .  S
C17          C18   1.383       .  A
C17          H20   1.082       .  S
C18          C19   1.381       .  A
C19          H21   1.082       .  S
Cu22         N25   2.080       .  S
Cu23         N33   2.068       .  S
Cu24         N26   2.069       .  S
Cu24         N32   2.070       .  S
N25          N26   1.323       .  A
N25          C29   1.347       .  A
N26          C27   1.344       .  A
C27          C28   1.381       .  A
C27          H30   1.082       .  S
C28         C124   1.467       .  S
C28          C29   1.384       .  A
C29          H31   1.082       .  S
N32          N33   1.322       .  A
N32          C36   1.345       .  A
N33          C34   1.343       .  A
C34          C35   1.381       .  A
C34          H37   1.082       .  S
C35         C610   1.474       .  S
C35          C36   1.383       .  A
C36          H38   1.081       .  S
N39          N40   1.322       .  A
N39          C43   1.345       .  A
N39         Cu47   2.075       .  S
N40          C41   1.347       .  A
N40         Cu46   2.078       .  S
C41          C42   1.384       .  A
C41          H44   1.082       .  S
C42          C43   1.383       .  A
C43          H45   1.082       .  S
Cu46         N49   2.078       .  S
Cu47         N57   2.075       .  S
Cu48         N50   2.075       .  S
Cu48         N56   2.075       .  S
N49          N50   1.323       .  A
N49          C53   1.345       .  A
N50          C51   1.346       .  A
C51          C52   1.382       .  A
C51          H54   1.082       .  S
C52         C138   1.467       .  S
C52          C53   1.382       .  A
C53          H55   1.082       .  S
N56          N57   1.323       .  A
N56          C60   1.346       .  A
N57          C58   1.345       .  A
C58          C59   1.381       .  A
C58          H61   1.082       .  S
C59         C594   1.473       .  S
C59          C60   1.381       .  A
C60          H62   1.082       .  S
N63          N64   1.323       .  A
N63          C67   1.345       .  A
N63         Cu71   2.068       .  S
N64          C65   1.346       .  A
N64         Cu70   2.082       .  S
C65          C66   1.384       .  A
C65          H68   1.082       .  S
C66         C122   1.468       .  S
C66          C67   1.381       .  A
C67          H69   1.082       .  S
Cu70         N73   2.082       .  S
Cu71         N81   2.068       .  S
Cu72         N74   2.079       .  S
Cu72         N80   2.079       .  S
N73          N74   1.323       .  A
N73          C77   1.347       .  A
N74          C75   1.346       .  A
C75          C76   1.383       .  A
C75          H78   1.082       .  S
C76          C77   1.384       .  A
C77          H79   1.082       .  S
N80          N81   1.323       .  A
N80          C84   1.346       .  A
N81          C82   1.344       .  A
C82          C83   1.380       .  A
C82          H85   1.082       .  S
C83         C578   1.474       .  S
C83          C84   1.383       .  A
C84          H86   1.082       .  S
N87          N88   1.324       .  A
N87          C91   1.346       .  A
N87         Cu95   2.079       .  S
N88          C89   1.347       .  A
N88         Cu94   2.085       .  S
C89          C90   1.384       .  A
C89          H92   1.082       .  S
C90          C91   1.382       .  A
C91          H93   1.082       .  S
Cu94         N97   2.085       .  S
Cu95        N105   2.079       .  S
Cu96         N98   2.077       .  S
Cu96        N104   2.077       .  S
N97          N98   1.323       .  A
N97         C101   1.348       .  A
N98          C99   1.345       .  A
C99         C100   1.382       .  A
C99         H102   1.082       .  S
C100        C135   1.471       .  S
C100        C101   1.385       .  A
C101        H103   1.082       .  S
N104        N105   1.322       .  A
N104        C108   1.346       .  A
N105        C106   1.346       .  A
C106        C107   1.384       .  A
C106        H109   1.082       .  S
C107        C562   1.479       .  S
C107        C108   1.383       .  A
C108        H110   1.082       .  S
O111        C121   1.278       .  A
O111       Cu119   2.016       .  S
O112        C122   1.278       .  A
O112       Cu119   2.014       .  S
O113        C123   1.276       .  A
O113       Cu119   2.006       .  S
O114        C124   1.276       .  A
O114       Cu119   2.003       .  S
O115        C124   1.278       .  A
O115       Cu120   2.017       .  S
O116        C123   1.279       .  A
O116       Cu120   2.017       .  S
O117        C122   1.277       .  A
O117       Cu120   2.009       .  S
O118        C121   1.277       .  A
O118       Cu120   2.011       .  S
Cu119      Cu120   2.377       .  S
C121        C190   1.469   1_565  S
C123        C214   1.468   1_565  S
O125        C135   1.278       .  A
O125       Cu133   2.013       .  S
O126        C136   1.278       .  A
O126       Cu133   2.014       .  S
O127        C137   1.277       .  A
O127       Cu133   2.006       .  S
O128        C138   1.277       .  A
O128       Cu133   2.008       .  S
O129        C138   1.278       .  A
O129       Cu134   2.012       .  S
O130        C137   1.278       .  A
O130       Cu134   2.012       .  S
O131        C136   1.278       .  A
O131       Cu134   2.016       .  S
O132        C135   1.278       .  A
O132       Cu134   2.016       .  S
Cu133      Cu134   2.376       .  S
C136        C156   1.470   1_565  S
C137        C238   1.466   1_565  S
O139        C149   1.278       .  A
O139       Cu147   2.012       .  S
O140        C150   1.278       .  A
O140       Cu771   2.013   1_554  S
O141        C151   1.278       .  A
O141       Cu771   2.011   1_554  S
O142        C152   1.278       .  A
O142       Cu147   2.012       .  S
O143        C152   1.277       .  A
O143       Cu148   2.009       .  S
O144        C151   1.277       .  A
O144       Cu772   2.011   1_554  S
O145        C150   1.277       .  A
O145       Cu772   2.010   1_554  S
O146        C149   1.278       .  A
O146       Cu148   2.012       .  S
Cu147       O764   2.011       .  S
Cu147       O765   2.012       .  S
Cu147      Cu148   2.377       .  S
Cu148       O768   2.010       .  S
Cu148       O769   2.011       .  S
C149        C166   1.469       .  S
C150        C204   1.468       .  S
C151        C228   1.467       .  S
C152        C180   1.467       .  S
N153        N154   1.322       .  A
N153        C157   1.346       .  A
N153       Cu161   2.072       .  S
N154        C155   1.347       .  A
N154       Cu160   2.082       .  S
C155        C156   1.384       .  A
C155        H158   1.082       .  S
C156        C157   1.382       .  A
C157        H159   1.082       .  S
Cu160       N163   2.082       .  S
Cu161       N171   2.072       .  S
Cu162       N164   2.071       .  S
Cu162       N170   2.071       .  S
N163        N164   1.323       .  A
N163        C167   1.346       .  A
N164        C165   1.346       .  A
C165        C166   1.382       .  A
C165        H168   1.082       .  S
C166        C167   1.383       .  A
C167        H169   1.082       .  S
N170        N171   1.323       .  A
N170        C174   1.345       .  A
N171        C172   1.344       .  A
C172        C173   1.382       .  A
C172        H175   1.081       .  S
C173        C549   1.475       .  S
C173        C174   1.382       .  A
C174        H176   1.082       .  S
N177        N178   1.324       .  A
N177        C181   1.345       .  A
N177       Cu185   2.075       .  S
N178        C179   1.346       .  A
N178       Cu184   2.083       .  S
C179        C180   1.382       .  A
C179        H182   1.082       .  S
C180        C181   1.382       .  A
C181        H183   1.082       .  S
Cu184       N187   2.083       .  S
Cu185       N195   2.075       .  S
Cu186       N188   2.068       .  S
Cu186       N194   2.069       .  S
N187        N188   1.322       .  A
N187        C191   1.347       .  A
N188        C189   1.345       .  A
C189        C190   1.381       .  A
C189        H192   1.082       .  S
C190        C191   1.385       .  A
C191        H193   1.082       .  S
N194        N195   1.321       .  A
N194        C198   1.343       .  A
N195        C196   1.345       .  A
C196        C197   1.386       .  A
C196        H199   1.082       .  S
C197        C530   1.483       .  S
C197        C198   1.384       .  A
C198        H200   1.079       .  S
N201        N202   1.323       .  A
N201        C205   1.345       .  A
N201       Cu209   2.077       .  S
N202        C203   1.346       .  A
N202       Cu208   2.074       .  S
C203        C204   1.383       .  A
C203        H206   1.082       .  S
C204        C205   1.382       .  A
C205        H207   1.082       .  S
Cu208       N211   2.074       .  S
Cu209       N219   2.077       .  S
Cu210       N212   2.079       .  S
Cu210       N218   2.079       .  S
N211        N212   1.323       .  A
N211        C215   1.345       .  A
N212        C213   1.346       .  A
C213        C214   1.383       .  A
C213        H216   1.082       .  S
C214        C215   1.382       .  A
C215        H217   1.082       .  S
N218        N219   1.323       .  A
N218        C222   1.346       .  A
N219        C220   1.346       .  A
C220        C221   1.384       .  A
C220        H223   1.081       .  S
C221        C517   1.480       .  S
C221        C222   1.384       .  A
C222        H224   1.082       .  S
N225        N226   1.323       .  A
N225        C229   1.346       .  A
N225       Cu233   2.078       .  S
N226        C227   1.345       .  A
N226       Cu232   2.074       .  S
C227        C228   1.382       .  A
C227        H230   1.082       .  S
C228        C229   1.382       .  A
C229        H231   1.082       .  S
Cu232       N235   2.073       .  S
Cu233       N243   2.078       .  S
Cu234       N236   2.073       .  S
Cu234       N242   2.073       .  S
N235        N236   1.323       .  A
N235        C239   1.346       .  A
N236        C237   1.344       .  A
C237        C238   1.381       .  A
C237        H240   1.082       .  S
C238        C239   1.383       .  A
C239        H241   1.082       .  S
N242        N243   1.322       .  A
N242        C246   1.346       .  A
N243        C244   1.345       .  A
C244        C245   1.384       .  A
C244        H247   1.082       .  S
C245        C501   1.481       .  S
C245        C246   1.384       .  A
C246        H248   1.081       .  S
O249        C259   1.279       .  A
O249       Cu257   2.021       .  S
O250        C260   1.279       .  A
O250       Cu257   2.021   1_455  S
O251        C261   1.276       .  A
O251       Cu257   2.005       .  S
O252        C262   1.277       .  A
O252       Cu257   2.009   1_455  S
O253        C262   1.279       .  A
O253       Cu258   2.020   1_455  S
O254        C261   1.279       .  A
O254       Cu258   2.018       .  S
O255        C260   1.277       .  A
O255       Cu258   2.009   1_455  S
O256        C259   1.277       .  A
O256       Cu258   2.011       .  S
Cu257      Cu258   2.376       .  S
C259        C452   1.471       .  S
C260        C304   1.471       .  S
C261        C438   1.468       .  S
C262        C376   1.470       .  S
O263        C273   1.278       .  A
O263       Cu271   2.013       .  S
O264        C274   1.278       .  A
O264       Cu271   2.013   1_655  S
O265        C275   1.278       .  A
O265       Cu271   2.012   1_655  S
O266        C276   1.278       .  A
O266       Cu271   2.012       .  S
O267        C276   1.277       .  A
O267       Cu272   2.010       .  S
O268        C275   1.277       .  A
O268       Cu272   2.010   1_655  S
O269        C274   1.278       .  A
O269       Cu272   2.011   1_655  S
O270        C273   1.278       .  A
O270       Cu272   2.012       .  S
Cu271      Cu272   2.377       .  S
C273        C328   1.469       .  S
C274        C486   1.468       .  S
C275        C414   1.468       .  S
C276        C352   1.467       .  S
O277        C287   1.278       .  A
O277       Cu909   2.014       .  S
O278        C288   1.278       .  A
O278       Cu285   2.015       .  S
O279        C289   1.277       .  A
O279       Cu285   2.008       .  S
O280        C290   1.277       .  A
O280       Cu909   2.005       .  S
O281        C290   1.278       .  A
O281       Cu910   2.013       .  S
O282        C289   1.278       .  A
O282       Cu286   2.012       .  S
O283        C288   1.278       .  A
O283       Cu286   2.016       .  S
O284        C287   1.278       .  A
O284       Cu910   2.016       .  S
Cu285       O901   2.014       .  S
Cu285       O904   2.006       .  S
Cu285      Cu286   2.376       .  S
Cu286       O905   2.012       .  S
Cu286       O908   2.016       .  S
C287        C366   1.471       .  S
C288        C318   1.471       .  S
C289        C294   1.467       .  S
C290        C342   1.466       .  S
N291        N292   1.323       .  A
N291        C295   1.345       .  A
N291       Cu299   2.074       .  S
N292        C293   1.345       .  A
N292       Cu298   2.078       .  S
C293        C294   1.382       .  A
C293        H296   1.082       .  S
C294        C295   1.382       .  A
C295        H297   1.082       .  S
Cu298       N301   2.078       .  S
Cu299       N309   2.074       .  S
Cu300       N302   2.076       .  S
Cu300       N308   2.076       .  S
N301        N302   1.322       .  A
N301        C305   1.347       .  A
N302        C303   1.346       .  A
C303        C304   1.383       .  A
C303        H306   1.082       .  S
C304        C305   1.384       .  A
C305        H307   1.082       .  S
N308        N309   1.323       .  A
N308        C312   1.345       .  A
N309        C310   1.345       .  A
C310        C311   1.381       .  A
C310        H313   1.082       .  S
C311        C597   1.473       .  S
C311        C312   1.381       .  A
C312        H314   1.082       .  S
N315        N316   1.322       .  A
N315        C319   1.346       .  A
N315       Cu323   2.073       .  S
N316        C317   1.347       .  A
N316       Cu322   2.082       .  S
C317        C318   1.384       .  A
C317        H320   1.082       .  S
C318        C319   1.383       .  A
C319        H321   1.082       .  S
Cu322       N325   2.082       .  S
Cu323       N333   2.072       .  S
Cu324       N326   2.072       .  S
Cu324       N332   2.072       .  S
N325        N326   1.323       .  A
N325        C329   1.346       .  A
N326        C327   1.346       .  A
C327        C328   1.382       .  A
C327        H330   1.082       .  S
C328        C329   1.383       .  A
C329        H331   1.082       .  S
N332        N333   1.323       .  A
N332        C336   1.345       .  A
N333        C334   1.344       .  A
C334        C335   1.382       .  A
C334        H337   1.081       .  S
C335        C546   1.475       .  S
C335        C336   1.382       .  A
C336        H338   1.082       .  S
N339        N340   1.323       .  A
N339        C343   1.344       .  A
N339       Cu347   2.073       .  S
N340        C341   1.346       .  A
N340       Cu346   2.074       .  S
C341        C342   1.383       .  A
C341        H344   1.082       .  S
C342        C343   1.381       .  A
C343        H345   1.082       .  S
Cu346       N349   2.074       .  S
Cu347       N357   2.073       .  S
Cu348       N350   2.077       .  S
Cu348       N356   2.077       .  S
N349        N350   1.323       .  A
N349        C353   1.345       .  A
N350        C351   1.346       .  A
C351        C352   1.382       .  A
C351        H354   1.082       .  S
C352        C353   1.382       .  A
C353        H355   1.082       .  S
N356        N357   1.322       .  A
N356        C360   1.345       .  A
N357        C358   1.346       .  A
C358        C359   1.384       .  A
C358        H361   1.081       .  S
C359        C498   1.480       .  S
C359        C360   1.384       .  A
C360        H362   1.082       .  S
N363        N364   1.323       .  A
N363        C367   1.345       .  A
N363       Cu371   2.076       .  S
N364        C365   1.348       .  A
N364       Cu370   2.086       .  S
C365        C366   1.385       .  A
C365        H368   1.082       .  S
C366        C367   1.382       .  A
C367        H369   1.082       .  S
Cu370       N373   2.087       .  S
Cu371       N381   2.076       .  S
Cu372       N374   2.078       .  S
Cu372       N380   2.078       .  S
N373        N374   1.324       .  A
N373        C377   1.347       .  A
N374        C375   1.346       .  A
C375        C376   1.382       .  A
C375        H378   1.082       .  S
C376        C377   1.384       .  A
C377        H379   1.082       .  S
N380        N381   1.322       .  A
N380        C384   1.346       .  A
N381        C382   1.346       .  A
C382        C383   1.383       .  A
C382        H385   1.082       .  S
C383        C565   1.479       .  S
C383        C384   1.383       .  A
C384        H386   1.082       .  S
O387        C397   1.278       .  A
O387      Cu1019   2.016       .  S
O388        C398   1.278       .  A
O388       Cu395   2.015       .  S
O389        C399   1.277       .  A
O389      Cu1019   2.012       .  S
O390        C400   1.277       .  A
O390       Cu395   2.009       .  S
O391        C400   1.278       .  A
O391       Cu396   2.014       .  S
O392        C399   1.278       .  A
O392      Cu1020   2.015       .  S
O393        C398   1.277       .  A
O393       Cu396   2.007       .  S
O394        C397   1.277       .  A
O394      Cu1020   2.004       .  S
Cu395      O1011   2.015   1_554  S
Cu395      O1013   2.011   1_554  S
Cu395      Cu396   2.377       .  S
Cu396      O1016   2.016   1_554  S
Cu396      O1018   2.004   1_554  S
C397        C428   1.467       .  S
C398        C476   1.468       .  S
C399        C404   1.470       .  S
C400        C462   1.467       .  S
N401        N402   1.322       .  A
N401        C405   1.345       .  A
N401       Cu409   2.068       .  S
N402        C403   1.347       .  A
N402       Cu408   2.083       .  S
C403        C404   1.385       .  A
C403        H406   1.082       .  S
C404        C405   1.381       .  A
C405        H407   1.082       .  S
Cu408       N411   2.083       .  S
Cu409       N419   2.068       .  S
Cu410       N412   2.076       .  S
Cu410       N418   2.076       .  S
N411        N412   1.324       .  A
N411        C415   1.346       .  A
N412        C413   1.346       .  A
C413        C414   1.382       .  A
C413        H416   1.082       .  S
C414        C415   1.383       .  A
C415        H417   1.082       .  S
N418        N419   1.321       .  A
N418        C422   1.345       .  A
N419        C420   1.343       .  A
C420        C421   1.384       .  A
C420        H423   1.079       .  S
C421        C533   1.483       .  S
C421        C422   1.386       .  A
C422        H424   1.082       .  S
N425        N426   1.323       .  A
N425        C429   1.344       .  A
N425       Cu433   2.069       .  S
N426        C427   1.347       .  A
N426       Cu432   2.080       .  S
C427        C428   1.384       .  A
C427        H430   1.082       .  S
C428        C429   1.381       .  A
C429        H431   1.082       .  S
Cu432       N435   2.080       .  S
Cu433       N443   2.069       .  S
Cu434       N436   2.067       .  S
Cu434       N442   2.067       .  S
N435        N436   1.322       .  A
N435        C439   1.345       .  A
N436        C437   1.346       .  A
C437        C438   1.381       .  A
C437        H440   1.082       .  S
C438        C439   1.384       .  A
C439        H441   1.082       .  S
N442        N443   1.322       .  A
N442        C446   1.343       .  A
N443        C444   1.345       .  A
C444        C445   1.383       .  A
C444        H447   1.081       .  S
C445        C613   1.474       .  S
C445        C446   1.381       .  A
C446        H448   1.082       .  S
N449        N450   1.323       .  A
N449        C453   1.346       .  A
N449       Cu457   2.080       .  S
N450        C451   1.347       .  A
N450       Cu456   2.082       .  S
C451        C452   1.384       .  A
C451        H454   1.082       .  S
C452        C453   1.383       .  A
C453        H455   1.082       .  S
Cu456       N459   2.082       .  S
Cu457       N467   2.080       .  S
Cu458       N460   2.067       .  S
Cu458       N466   2.067       .  S
N459        N460   1.323       .  A
N459        C463   1.346       .  A
N460        C461   1.345       .  A
C461        C462   1.381       .  A
C461        H464   1.082       .  S
C462        C463   1.384       .  A
C463        H465   1.082       .  S
N466        N467   1.323       .  A
N466        C470   1.344       .  A
N467        C468   1.346       .  A
C468        C469   1.383       .  A
C468        H471   1.082       .  S
C469        C581   1.474       .  S
C469        C470   1.380       .  A
C470        H472   1.082       .  S
N473        N474   1.323       .  A
N473        C477   1.346       .  A
N473       Cu481   2.077       .  S
N474        C475   1.346       .  A
N474       Cu480   2.075       .  S
C475        C476   1.382       .  A
C475        H478   1.082       .  S
C476        C477   1.383       .  A
C477        H479   1.082       .  S
Cu480       N483   2.075       .  S
Cu481       N491   2.078       .  S
Cu482       N484   2.077       .  S
Cu482       N490   2.078       .  S
N483        N484   1.323       .  A
N483        C487   1.346       .  A
N484        C485   1.345       .  A
C485        C486   1.382       .  A
C485        H488   1.082       .  S
C486        C487   1.383       .  A
C487        H489   1.082       .  S
N490        N491   1.322       .  A
N490        C494   1.346       .  A
N491        C492   1.346       .  A
C492        C493   1.383       .  A
C492        H495   1.082       .  S
C493        C514   1.480       .  S
C493        C494   1.384       .  A
C494        H496   1.081       .  S
C497        C498   1.403       .  A
C497        C502   1.407       .  A
C497        H504   1.083       .  S
C498        C499   1.417       .  A
C499        C500   1.408       .  A
C499        C506   1.518       .  S
C500        C501   1.403       .  A
C500        H505   1.083       .  S
C501        C502   1.417       .  A
C502        C503   1.519       .  S
C503        F507   1.385       .  S
C503        F508   1.381       .  S
C503        F509   1.383       .  S
C506        F510   1.383       .  S
C506        F511   1.381       .  S
C506        F512   1.385       .  S
C513        C514   1.402       .  A
C513        C518   1.408       .  A
C513        H520   1.083       .  S
C514        C515   1.417       .  A
C515        C516   1.408       .  A
C515        C522   1.518       .  S
C516        C517   1.402       .  A
C516        H521   1.083       .  S
C517        C518   1.417       .  A
C518        C519   1.518       .  S
C519        F523   1.385       .  S
C519        F524   1.383       .  S
C519        F525   1.381       .  S
C522        F526   1.381       .  S
C522        F527   1.384       .  S
C522        F528   1.385       .  S
C529        C530   1.403       .  A
C529        C534   1.407       .  A
C529        H536   1.083       .  S
C530        C531   1.419       .  A
C531        C532   1.407       .  A
C531        C538   1.520       .  S
C532        C533   1.403       .  A
C532        H537   1.083       .  S
C533        C534   1.419       .  A
C534        C535   1.520       .  S
C535        F539   1.384       .  S
C535        F540   1.383       .  S
C535        F541   1.381       .  S
C538        F542   1.381       .  S
C538        F543   1.383       .  S
C538        F544   1.384       .  S
C545        C546   1.402       .  A
C545        C550   1.406       .  A
C545        H552   1.083       .  S
C546        C547   1.416       .  A
C547        C548   1.406       .  A
C547        C554   1.519       .  S
C548        C549   1.402       .  A
C548        H553   1.083       .  S
C549        C550   1.416       .  A
C550        C551   1.519       .  S
C551        F555   1.384       .  S
C551        F556   1.384       .  S
C551        F557   1.381       .  S
C554        F558   1.381       .  S
C554        F559   1.383       .  S
C554        F560   1.384       .  S
C561        C562   1.403       .  A
C561        C566   1.408       .  A
C561        H568   1.083       .  S
C562        C563   1.416       .  A
C563        C564   1.408       .  A
C563        C570   1.518       .  S
C564        C565   1.402       .  A
C564        H569   1.083       .  S
C565        C566   1.416       .  A
C566        C567   1.518       .  S
C567        F571   1.385       .  S
C567        F572   1.382       .  S
C567        F573   1.383       .  S
C570        F574   1.383       .  S
C570        F575   1.382       .  S
C570        F576   1.385       .  S
C577        C578   1.402       .  A
C577        C582   1.407       .  A
C577        H584   1.083       .  S
C578        C579   1.415       .  A
C579        C580   1.407       .  A
C579        C586   1.518       .  S
C580        C581   1.402       .  A
C580        H585   1.083       .  S
C581        C582   1.415       .  A
C582        C583   1.518       .  S
C583        F587   1.384       .  S
C583        F588   1.382       .  S
C583        F589   1.383       .  S
C586        F590   1.383       .  S
C586        F591   1.382       .  S
C586        F592   1.384       .  S
C593        C594   1.401       .  A
C593        C598   1.407       .  A
C593        H600   1.083       .  S
C594        C595   1.414       .  A
C595        C596   1.406       .  A
C595        C602   1.517       .  S
C596        C597   1.401       .  A
C596        H601   1.083       .  S
C597        C598   1.414       .  A
C598        C599   1.517       .  S
C599        F603   1.384       .  S
C599        F604   1.383       .  S
C599        F605   1.383       .  S
C602        F606   1.383       .  S
C602        F607   1.383       .  S
C602        F608   1.384       .  S
C609        C610   1.402       .  A
C609        C614   1.405       .  A
C609        H616   1.083       .  S
C610        C611   1.416       .  A
C611        C612   1.405       .  A
C611        C618   1.519       .  S
C612        C613   1.402       .  A
C612        H617   1.083       .  S
C613        C614   1.416       .  A
C614        C615   1.519       .  S
C615        F619   1.384       .  S
C615        F620   1.381       .  S
C615        F621   1.384       .  S
C618        F622   1.383       .  S
C618        F623   1.381       .  S
C618        F624   1.384       .  S
O625        C635   1.276       .  A
O626        C636   1.277       .  A
O626       Cu633   2.009       .  S
O627        C637   1.279       .  A
O627       Cu633   2.020       .  S
O628        C638   1.279       .  A
O629        C638   1.277       .  A
O629       Cu634   2.008       .  S
O630        C637   1.277       .  A
O631        C636   1.279       .  A
O632        C635   1.279       .  A
O632       Cu634   2.017       .  S
C635        C642   1.468       .  S
C636        C714   1.470       .  S
C637        C700   1.471       .  S
C638        C666   1.470       .  S
N639        N640   1.322       .  A
N639        C643   1.345       .  A
N639       Cu647   2.066       .  S
N640        C641   1.345       .  A
N640       Cu646   2.080       .  S
C641        C642   1.384       .  A
C641        H644   1.082       .  S
C642        C643   1.381       .  A
C643        H645   1.082       .  S
Cu646       N649   2.080       .  S
Cu647       N657   2.066       .  S
Cu648       N650   2.069       .  S
Cu648       N656   2.069       .  S
N649        N650   1.323       .  A
N649        C653   1.347       .  A
N650        C651   1.344       .  A
C651        C652   1.380       .  A
C651        H654   1.082       .  S
C652        C748   1.466       .  S
C652        C653   1.383       .  A
C653        H655   1.082       .  S
N656        N657   1.322       .  A
N656        C660   1.344       .  A
N657        C658   1.343       .  A
C658        C659   1.381       .  A
C658        H661   1.082       .  S
C659       C1234   1.474       .  S
C659        C660   1.383       .  A
C660        H662   1.081       .  S
N663        N664   1.322       .  A
N663        C667   1.345       .  A
N663       Cu671   2.076       .  S
N664        C665   1.347       .  A
N664       Cu670   2.076       .  S
C665        C666   1.383       .  A
C665        H668   1.082       .  S
C666        C667   1.383       .  A
C667        H669   1.082       .  S
Cu670       N673   2.076       .  S
Cu671       N681   2.077       .  S
Cu672       N674   2.075       .  S
Cu672       N680   2.075       .  S
N673        N674   1.323       .  A
N673        C677   1.345       .  A
N674        C675   1.346       .  A
C675        C676   1.382       .  A
C675        H678   1.082       .  S
C676        C762   1.467       .  S
C676        C677   1.382       .  A
C677        H679   1.082       .  S
N680        N681   1.323       .  A
N680        C684   1.345       .  A
N681        C682   1.346       .  A
C682        C683   1.381       .  A
C682        H685   1.082       .  S
C683       C1218   1.473       .  S
C683        C684   1.381       .  A
C684        H686   1.082       .  S
N687        N688   1.323       .  A
N687        C691   1.345       .  A
N687       Cu695   2.068       .  S
N688        C689   1.346       .  A
N688       Cu694   2.080       .  S
C689        C690   1.384       .  A
C689        H692   1.082       .  S
C690        C746   1.467       .  S
C690        C691   1.381       .  A
C691        H693   1.082       .  S
Cu694       N697   2.080       .  S
Cu695       N705   2.068       .  S
Cu696       N698   2.080       .  S
Cu696       N704   2.080       .  S
N697        N698   1.323       .  A
N697        C701   1.347       .  A
N698        C699   1.346       .  A
C699        C700   1.383       .  A
C699        H702   1.082       .  S
C700        C701   1.383       .  A
C701        H703   1.082       .  S
N704        N705   1.323       .  A
N704        C708   1.346       .  A
N705        C706   1.345       .  A
C706        C707   1.379       .  A
C706        H709   1.082       .  S
C707       C1202   1.472       .  S
C707        C708   1.382       .  A
C708        H710   1.082       .  S
N711        N712   1.324       .  A
N711        C715   1.346       .  A
N711       Cu719   2.078       .  S
N712        C713   1.347       .  A
N712       Cu718   2.087       .  S
C713        C714   1.384       .  A
C713        H716   1.082       .  S
C714        C715   1.382       .  A
C715        H717   1.082       .  S
Cu718       N721   2.086       .  S
Cu719       N729   2.078       .  S
Cu720       N722   2.076       .  S
Cu720       N728   2.076       .  S
N721        N722   1.323       .  A
N721        C725   1.348       .  A
N722        C723   1.345       .  A
C723        C724   1.382       .  A
C723        H726   1.082       .  S
C724        C759   1.471       .  S
C724        C725   1.385       .  A
C725        H727   1.082       .  S
N728        N729   1.322       .  A
N728        C732   1.346       .  A
N729        C730   1.346       .  A
C730        C731   1.383       .  A
C730        H733   1.082       .  S
C731       C1186   1.479       .  S
C731        C732   1.383       .  A
C732        H734   1.082       .  S
O735        C745   1.278       .  A
O735       Cu743   2.015       .  S
O736        C746   1.278       .  A
O736       Cu743   2.013       .  S
O737        C747   1.277       .  A
O737       Cu743   2.006       .  S
O738        C748   1.277       .  A
O738       Cu743   2.004       .  S
O739        C748   1.278       .  A
O739       Cu744   2.015       .  S
O740        C747   1.279       .  A
O740       Cu744   2.016       .  S
O741        C746   1.277       .  A
O741       Cu744   2.009       .  S
O742        C745   1.277       .  A
O742       Cu744   2.011       .  S
Cu743      Cu744   2.377       .  S
C745        C814   1.469   1_565  S
C747        C838   1.468   1_565  S
O749        C759   1.278       .  A
O749       Cu757   2.014       .  S
O750        C760   1.278       .  A
O750       Cu757   2.015       .  S
O751        C761   1.277       .  A
O751       Cu757   2.005       .  S
O752        C762   1.277       .  A
O752       Cu757   2.008       .  S
O753        C762   1.278       .  A
O753       Cu758   2.012       .  S
O754        C761   1.278       .  A
O754       Cu758   2.012       .  S
O755        C760   1.278       .  A
O755       Cu758   2.015       .  S
O756        C759   1.278       .  A
O756       Cu758   2.016       .  S
Cu757      Cu758   2.376       .  S
C760        C780   1.470   1_565  S
C761        C862   1.466   1_565  S
O763        C773   1.278       .  A
O763       Cu771   2.013       .  S
O764        C774   1.277       .  A
O765        C775   1.278       .  A
O766        C776   1.277       .  A
O766       Cu771   2.011       .  S
O767        C776   1.277       .  A
O767       Cu772   2.010       .  S
O768        C775   1.277       .  A
O769        C774   1.278       .  A
O770        C773   1.278       .  A
O770       Cu772   2.011       .  S
Cu771      Cu772   2.377       .  S
C773        C790   1.469       .  S
C774        C828   1.468       .  S
C775        C852   1.467       .  S
C776        C804   1.467       .  S
N777        N778   1.322       .  A
N777        C781   1.346       .  A
N777       Cu785   2.072       .  S
N778        C779   1.347       .  A
N778       Cu784   2.081       .  S
C779        C780   1.384       .  A
C779        H782   1.082       .  S
C780        C781   1.383       .  A
C781        H783   1.082       .  S
Cu784       N787   2.081       .  S
Cu785       N795   2.072       .  S
Cu786       N788   2.073       .  S
Cu786       N794   2.073       .  S
N787        N788   1.323       .  A
N787        C791   1.346       .  A
N788        C789   1.346       .  A
C789        C790   1.382       .  A
C789        H792   1.082       .  S
C790        C791   1.383       .  A
C791        H793   1.082       .  S
N794        N795   1.323       .  A
N794        C798   1.345       .  A
N795        C796   1.344       .  A
C796        C797   1.381       .  A
C796        H799   1.082       .  S
C797       C1173   1.474       .  S
C797        C798   1.382       .  A
C798        H800   1.082       .  S
N801        N802   1.324       .  A
N801        C805   1.345       .  A
N801       Cu809   2.074       .  S
N802        C803   1.346       .  A
N802       Cu808   2.084       .  S
C803        C804   1.383       .  A
C803        H806   1.082       .  S
C804        C805   1.381       .  A
C805        H807   1.082       .  S
Cu808       N811   2.084       .  S
Cu809       N819   2.074       .  S
Cu810       N812   2.068       .  S
Cu810       N818   2.068       .  S
N811        N812   1.322       .  A
N811        C815   1.347       .  A
N812        C813   1.345       .  A
C813        C814   1.381       .  A
C813        H816   1.082       .  S
C814        C815   1.385       .  A
C815        H817   1.082       .  S
N818        N819   1.321       .  A
N818        C822   1.343       .  A
N819        C820   1.345       .  A
C820        C821   1.386       .  A
C820        H823   1.082       .  S
C821       C1154   1.483       .  S
C821        C822   1.384       .  A
C822        H824   1.079       .  S
N825        N826   1.323       .  A
N825        C829   1.345       .  A
N825       Cu833   2.077       .  S
N826        C827   1.346       .  A
N826       Cu832   2.075       .  S
C827        C828   1.383       .  A
C827        H830   1.082       .  S
C828        C829   1.382       .  A
C829        H831   1.082       .  S
Cu832       N835   2.075       .  S
Cu833       N843   2.078       .  S
Cu834       N836   2.077       .  S
Cu834       N842   2.078       .  S
N835        N836   1.323       .  A
N835        C839   1.345       .  A
N836        C837   1.346       .  A
C837        C838   1.383       .  A
C837        H840   1.082       .  S
C838        C839   1.382       .  A
C839        H841   1.082       .  S
N842        N843   1.322       .  A
N842        C846   1.346       .  A
N843        C844   1.346       .  A
C844        C845   1.384       .  A
C844        H847   1.081       .  S
C845       C1141   1.480       .  S
C845        C846   1.383       .  A
C846        H848   1.082       .  S
N849        N850   1.323       .  A
N849        C853   1.346       .  A
N849       Cu857   2.078       .  S
N850        C851   1.345       .  A
N850       Cu856   2.073       .  S
C851        C852   1.382       .  A
C851        H854   1.082       .  S
C852        C853   1.382       .  A
C853        H855   1.082       .  S
Cu856       N859   2.073       .  S
Cu857       N867   2.078       .  S
Cu858       N860   2.073       .  S
Cu858       N866   2.073       .  S
N859        N860   1.323       .  A
N859        C863   1.346       .  A
N860        C861   1.344       .  A
C861        C862   1.381       .  A
C861        H864   1.082       .  S
C862        C863   1.383       .  A
C863        H865   1.082       .  S
N866        N867   1.322       .  A
N866        C870   1.346       .  A
N867        C868   1.345       .  A
C868        C869   1.384       .  A
C868        H871   1.082       .  S
C869       C1125   1.481       .  S
C869        C870   1.384       .  A
C870        H872   1.081       .  S
O873        C883   1.279       .  A
O873       Cu881   2.020       .  S
O874        C884   1.279       .  A
O874       Cu881   2.020   1_455  S
O875        C885   1.276       .  A
O875       Cu881   2.006       .  S
O876        C886   1.277       .  A
O876       Cu881   2.009   1_455  S
O877        C886   1.279       .  A
O877       Cu882   2.019   1_455  S
O878        C885   1.279       .  A
O878       Cu882   2.019       .  S
O879        C884   1.277       .  A
O879       Cu882   2.008   1_455  S
O880        C883   1.277       .  A
O880       Cu882   2.011       .  S
Cu881      Cu882   2.376       .  S
C883       C1076   1.472       .  S
C884        C928   1.470       .  S
C885       C1062   1.468       .  S
C886       C1000   1.470       .  S
O887        C897   1.278       .  A
O887       Cu895   2.013       .  S
O888        C898   1.278       .  A
O888       Cu895   2.012   1_655  S
O889        C899   1.278       .  A
O889       Cu895   2.012   1_655  S
O890        C900   1.278       .  A
O890       Cu895   2.011       .  S
O891        C900   1.277       .  A
O891       Cu896   2.010   1_455  S
O892        C899   1.277       .  A
O892       Cu896   2.010       .  S
O893        C898   1.278       .  A
O893       Cu896   2.010       .  S
O894        C897   1.278       .  A
O894       Cu896   2.011   1_455  S
Cu895      Cu896   2.377   1_455  S
C897        C952   1.469       .  S
C898       C1110   1.468       .  S
C899       C1038   1.467       .  S
C900        C976   1.467       .  S
O901        C911   1.278       .  A
O902        C912   1.278       .  A
O902       Cu909   2.015   1_556  S
O903        C913   1.277       .  A
O903       Cu909   2.008   1_556  S
O904        C914   1.277       .  A
O905        C914   1.278       .  A
O906        C913   1.278       .  A
O906       Cu910   2.012   1_556  S
O907        C912   1.278       .  A
O907       Cu910   2.015   1_556  S
O908        C911   1.278       .  A
Cu909      Cu910   2.376       .  S
C911        C990   1.471       .  S
C912        C942   1.470       .  S
C913        C918   1.467       .  S
C914        C966   1.466       .  S
N915        N916   1.323       .  A
N915        C919   1.346       .  A
N915       Cu923   2.075       .  S
N916        C917   1.345       .  A
N916       Cu922   2.076       .  S
C917        C918   1.382       .  A
C917        H920   1.082       .  S
C918        C919   1.383       .  A
C919        H921   1.082       .  S
Cu922       N925   2.077       .  S
Cu923       N933   2.075       .  S
Cu924       N926   2.076       .  S
Cu924       N932   2.076       .  S
N925        N926   1.322       .  A
N925        C929   1.347       .  A
N926        C927   1.345       .  A
C927        C928   1.383       .  A
C927        H930   1.082       .  S
C928        C929   1.384       .  A
C929        H931   1.082       .  S
N932        N933   1.323       .  A
N932        C936   1.346       .  A
N933        C934   1.345       .  A
C934        C935   1.381       .  A
C934        H937   1.082       .  S
C935       C1221   1.473       .  S
C935        C936   1.381       .  A
C936        H938   1.082       .  S
N939        N940   1.322       .  A
N939        C943   1.346       .  A
N939       Cu947   2.072       .  S
N940        C941   1.346       .  A
N940       Cu946   2.081       .  S
C941        C942   1.384       .  A
C941        H944   1.082       .  S
C942        C943   1.383       .  A
C943        H945   1.082       .  S
Cu946       N949   2.081       .  S
Cu947       N957   2.072       .  S
Cu948       N950   2.073       .  S
Cu948       N956   2.073       .  S
N949        N950   1.323       .  A
N949        C953   1.346       .  A
N950        C951   1.346       .  A
C951        C952   1.382       .  A
C951        H954   1.082       .  S
C952        C953   1.383       .  A
C953        H955   1.082       .  S
N956        N957   1.323       .  A
N956        C960   1.345       .  A
N957        C958   1.344       .  A
C958        C959   1.381       .  A
C958        H961   1.082       .  S
C959       C1170   1.473       .  S
C959        C960   1.381       .  A
C960        H962   1.082       .  S
N963        N964   1.323       .  A
N963        C967   1.344       .  A
N963       Cu971   2.073       .  S
N964        C965   1.346       .  A
N964       Cu970   2.073       .  S
C965        C966   1.382       .  A
C965        H968   1.082       .  S
C966        C967   1.381       .  A
C967        H969   1.082       .  S
Cu970       N973   2.073       .  S
Cu971       N981   2.074       .  S
Cu972       N974   2.078       .  S
Cu972       N980   2.078       .  S
N973        N974   1.323       .  A
N973        C977   1.345       .  A
N974        C975   1.346       .  A
C975        C976   1.382       .  A
C975        H978   1.082       .  S
C976        C977   1.382       .  A
C977        H979   1.082       .  S
N980        N981   1.322       .  A
N980        C984   1.345       .  A
N981        C982   1.346       .  A
C982        C983   1.384       .  A
C982        H985   1.081       .  S
C983       C1122   1.481       .  S
C983        C984   1.384       .  A
C984        H986   1.082       .  S
N987        N988   1.323       .  A
N987        C991   1.345       .  A
N987       Cu995   2.077       .  S
N988        C989   1.348       .  A
N988       Cu994   2.086       .  S
C989        C990   1.385       .  A
C989        H992   1.082       .  S
C990        C991   1.382       .  A
C991        H993   1.082       .  S
Cu994       N997   2.086       .  S
Cu995      N1005   2.077       .  S
Cu996       N998   2.078       .  S
Cu996      N1004   2.079       .  S
N997        N998   1.324       .  A
N997       C1001   1.347       .  A
N998        C999   1.346       .  A
C999       C1000   1.382       .  A
C999       H1002   1.082       .  S
C1000      C1001   1.384       .  A
C1001      H1003   1.082       .  S
N1004      N1005   1.322       .  A
N1004      C1008   1.346       .  A
N1005      C1006   1.346       .  A
C1006      C1007   1.383       .  A
C1006      H1009   1.082       .  S
C1007      C1189   1.479       .  S
C1007      C1008   1.384       .  A
C1008      H1010   1.082       .  S
O1011      C1021   1.278       .  A
O1012      C1022   1.279       .  A
O1012     Cu1019   2.016       .  S
O1013      C1023   1.277       .  A
O1014      C1024   1.277       .  A
O1014     Cu1019   2.010       .  S
O1015      C1024   1.278       .  A
O1015     Cu1020   2.014       .  S
O1016      C1023   1.278       .  A
O1017      C1022   1.276       .  A
O1017     Cu1020   2.006       .  S
O1018      C1021   1.277       .  A
Cu1019    Cu1020   2.377       .  S
C1021      C1052   1.466       .  S
C1022      C1100   1.468       .  S
C1023      C1028   1.470       .  S
C1024      C1086   1.468       .  S
N1025      N1026   1.322       .  A
N1025      C1029   1.345       .  A
N1025     Cu1033   2.068       .  S
N1026      C1027   1.347       .  A
N1026     Cu1032   2.084       .  S
C1027      C1028   1.385       .  A
C1027      H1030   1.082       .  S
C1028      C1029   1.381       .  A
C1029      H1031   1.082       .  S
Cu1032     N1035   2.083       .  S
Cu1033     N1043   2.069       .  S
Cu1034     N1036   2.075       .  S
Cu1034     N1042   2.075       .  S
N1035      N1036   1.324       .  A
N1035      C1039   1.346       .  A
N1036      C1037   1.345       .  A
C1037      C1038   1.381       .  A
C1037      H1040   1.082       .  S
C1038      C1039   1.383       .  A
C1039      H1041   1.082       .  S
N1042      N1043   1.321       .  A
N1042      C1046   1.345       .  A
N1043      C1044   1.343       .  A
C1044      C1045   1.384       .  A
C1044      H1047   1.079       .  S
C1045      C1157   1.483       .  S
C1045      C1046   1.386       .  A
C1046      H1048   1.082       .  S
N1049      N1050   1.323       .  A
N1049      C1053   1.344       .  A
N1049     Cu1057   2.068       .  S
N1050      C1051   1.347       .  A
N1050     Cu1056   2.081       .  S
C1051      C1052   1.383       .  A
C1051      H1054   1.082       .  S
C1052      C1053   1.380       .  A
C1053      H1055   1.082       .  S
Cu1056     N1059   2.081       .  S
Cu1057     N1067   2.068       .  S
Cu1058     N1060   2.068       .  S
Cu1058     N1066   2.068       .  S
N1059      N1060   1.322       .  A
N1059      C1063   1.345       .  A
N1060      C1061   1.346       .  A
C1061      C1062   1.381       .  A
C1061      H1064   1.082       .  S
C1062      C1063   1.384       .  A
C1063      H1065   1.082       .  S
N1066      N1067   1.322       .  A
N1066      C1070   1.343       .  A
N1067      C1068   1.344       .  A
C1068      C1069   1.383       .  A
C1068      H1071   1.081       .  S
C1069      C1237   1.474       .  S
C1069      C1070   1.381       .  A
C1070      H1072   1.082       .  S
N1073      N1074   1.323       .  A
N1073      C1077   1.346       .  A
N1073     Cu1081   2.079       .  S
N1074      C1075   1.347       .  A
N1074     Cu1080   2.081       .  S
C1075      C1076   1.384       .  A
C1075      H1078   1.082       .  S
C1076      C1077   1.383       .  A
C1077      H1079   1.082       .  S
Cu1080     N1083   2.081       .  S
Cu1081     N1091   2.079       .  S
Cu1082     N1084   2.069       .  S
Cu1082     N1090   2.069       .  S
N1083      N1084   1.323       .  A
N1083      C1087   1.346       .  A
N1084      C1085   1.345       .  A
C1085      C1086   1.381       .  A
C1085      H1088   1.082       .  S
C1086      C1087   1.384       .  A
C1087      H1089   1.082       .  S
N1090      N1091   1.323       .  A
N1090      C1094   1.345       .  A
N1091      C1092   1.346       .  A
C1092      C1093   1.382       .  A
C1092      H1095   1.082       .  S
C1093      C1205   1.472       .  S
C1093      C1094   1.380       .  A
C1094      H1096   1.082       .  S
N1097      N1098   1.323       .  A
N1097      C1101   1.346       .  A
N1097     Cu1105   2.079       .  S
N1098      C1099   1.345       .  A
N1098     Cu1104   2.074       .  S
C1099      C1100   1.382       .  A
C1099      H1102   1.082       .  S
C1100      C1101   1.383       .  A
C1101      H1103   1.082       .  S
Cu1104     N1107   2.074       .  S
Cu1105     N1115   2.079       .  S
Cu1106     N1108   2.076       .  S
Cu1106     N1114   2.077       .  S
N1107      N1108   1.323       .  A
N1107      C1111   1.346       .  A
N1108      C1109   1.345       .  A
C1109      C1110   1.382       .  A
C1109      H1112   1.082       .  S
C1110      C1111   1.383       .  A
C1111      H1113   1.082       .  S
N1114      N1115   1.322       .  A
N1114      C1118   1.346       .  A
N1115      C1116   1.346       .  A
C1116      C1117   1.384       .  A
C1116      H1119   1.082       .  S
C1117      C1138   1.480       .  S
C1117      C1118   1.384       .  A
C1118      H1120   1.081       .  S
C1121      C1122   1.403       .  A
C1121      C1126   1.407       .  A
C1121      H1128   1.083       .  S
C1122      C1123   1.417       .  A
C1123      C1124   1.407       .  A
C1123      C1130   1.519       .  S
C1124      C1125   1.403       .  A
C1124      H1129   1.083       .  S
C1125      C1126   1.417       .  A
C1126      C1127   1.519       .  S
C1127      F1131   1.385       .  S
C1127      F1132   1.381       .  S
C1127      F1133   1.383       .  S
C1130      F1134   1.383       .  S
C1130      F1135   1.381       .  S
C1130      F1136   1.385       .  S
C1137      C1138   1.402       .  A
C1137      C1142   1.408       .  A
C1137      H1144   1.083       .  S
C1138      C1139   1.417       .  A
C1139      C1140   1.408       .  A
C1139      C1146   1.518       .  S
C1140      C1141   1.403       .  A
C1140      H1145   1.083       .  S
C1141      C1142   1.417       .  A
C1142      C1143   1.518       .  S
C1143      F1147   1.385       .  S
C1143      F1148   1.384       .  S
C1143      F1149   1.381       .  S
C1146      F1150   1.381       .  S
C1146      F1151   1.383       .  S
C1146      F1152   1.385       .  S
C1153      C1154   1.403       .  A
C1153      C1158   1.407       .  A
C1153      H1160   1.083       .  S
C1154      C1155   1.419       .  A
C1155      C1156   1.407       .  A
C1155      C1162   1.520       .  S
C1156      C1157   1.403       .  A
C1156      H1161   1.083       .  S
C1157      C1158   1.419       .  A
C1158      C1159   1.520       .  S
C1159      F1163   1.385       .  S
C1159      F1164   1.383       .  S
C1159      F1165   1.381       .  S
C1162      F1166   1.381       .  S
C1162      F1167   1.383       .  S
C1162      F1168   1.384       .  S
C1169      C1170   1.401       .  A
C1169      C1174   1.406       .  A
C1169      H1176   1.083       .  S
C1170      C1171   1.416       .  A
C1171      C1172   1.406       .  A
C1171      C1178   1.518       .  S
C1172      C1173   1.401       .  A
C1172      H1177   1.083       .  S
C1173      C1174   1.416       .  A
C1174      C1175   1.518       .  S
C1175      F1179   1.384       .  S
C1175      F1180   1.383       .  S
C1175      F1181   1.381       .  S
C1178      F1182   1.381       .  S
C1178      F1183   1.384       .  S
C1178      F1184   1.384       .  S
C1185      C1186   1.402       .  A
C1185      C1190   1.408       .  A
C1185      H1192   1.083       .  S
C1186      C1187   1.416       .  A
C1187      C1188   1.408       .  A
C1187      C1194   1.518       .  S
C1188      C1189   1.403       .  A
C1188      H1193   1.083       .  S
C1189      C1190   1.416       .  A
C1190      C1191   1.518       .  S
C1191      F1195   1.385       .  S
C1191      F1196   1.382       .  S
C1191      F1197   1.383       .  S
C1194      F1198   1.383       .  S
C1194      F1199   1.382       .  S
C1194      F1200   1.385       .  S
C1201      C1202   1.401       .  A
C1201      C1206   1.407       .  A
C1201      H1208   1.083       .  S
C1202      C1203   1.414       .  A
C1203      C1204   1.407       .  A
C1203      C1210   1.517       .  S
C1204      C1205   1.401       .  A
C1204      H1209   1.083       .  S
C1205      C1206   1.414       .  A
C1206      C1207   1.517       .  S
C1207      F1211   1.384       .  S
C1207      F1212   1.383       .  S
C1207      F1213   1.383       .  S
C1210      F1214   1.383       .  S
C1210      F1215   1.383       .  S
C1210      F1216   1.384       .  S
C1217      C1218   1.401       .  A
C1217      C1222   1.407       .  A
C1217      H1224   1.083       .  S
C1218      C1219   1.414       .  A
C1219      C1220   1.407       .  A
C1219      C1226   1.517       .  S
C1220      C1221   1.401       .  A
C1220      H1225   1.083       .  S
C1221      C1222   1.414       .  A
C1222      C1223   1.517       .  S
C1223      F1227   1.384       .  S
C1223      F1228   1.383       .  S
C1223      F1229   1.383       .  S
C1226      F1230   1.383       .  S
C1226      F1231   1.383       .  S
C1226      F1232   1.384       .  S
C1233      C1234   1.402       .  A
C1233      C1238   1.405       .  A
C1233      H1240   1.083       .  S
C1234      C1235   1.416       .  A
C1235      C1236   1.405       .  A
C1235      C1242   1.519       .  S
C1236      C1237   1.402       .  A
C1236      H1241   1.083       .  S
C1237      C1238   1.416       .  A
C1238      C1239   1.519       .  S
C1239      F1243   1.384       .  S
C1239      F1244   1.381       .  S
C1239      F1245   1.383       .  S
C1242      F1246   1.384       .  S
C1242      F1247   1.381       .  S
C1242      F1248   1.384       .  S
