geometry optimzed in LAMMPS
_audit_creation_date              2020-12-01 
_audit_creation_method            'lammps2cif' 
_symmetry_space_group_name_H-M    'P1' 
_symmetry_Int_Tables_number       1 
_symmetry_cell_setting            triclinic 
loop_ 
_symmetry_equiv_pos_as_xyz 
  x,y,z 
_cell_length_a                    39.1997931 
_cell_length_b                    39.19272720996124 
_cell_length_c                    39.19088943310267 
_cell_angle_alpha                 89.93906376836952 
_cell_angle_beta                  90.09649459169219 
_cell_angle_gamma                 89.79773683408833 
loop_ 
_atom_site_label 
_atom_site_type_symbol 
_atom_site_fract_x 
_atom_site_fract_y 
_atom_site_fract_z 
_atom_site_charge 
O1          O  0.62197774  0.32698109  0.97110528    -0.71600
O2          O  0.72452402  0.32588261  0.97119790    -0.72500
O3          O  0.67238574  0.27513239  0.97103040    -0.61200
O4          O  0.67375390  0.37763969  0.97128020    -0.69600
O5          O  0.67384257  0.37745837  0.02795267    -0.69100
O6          O  0.67245262  0.27497396  0.02774468    -0.60400
O7          O  0.72455230  0.32570221  0.02790640    -0.72900
O8          O  0.62211290  0.32681772  0.02778258    -0.71700
Cu9        Cu  0.67321630  0.32639197  0.96915507     1.04600
Cu10       Cu  0.67329608  0.32620783  0.02982704     1.04300
C11         C  0.60593061  0.32688351  0.99945813     0.94600
C12         C  0.74056598  0.32604110  0.99957675     0.93800
C13         C  0.67162450  0.25905516  0.99936134     0.85900
C14         C  0.67395336  0.39367599  0.99965451     0.92200
O15         O  0.50098435  0.27572201  0.97144048    -0.71600
O16         O  0.50118267  0.37819152  0.97179067    -0.72500
O17         O  0.55221529  0.32677262  0.97129306    -0.61200
O18         O  0.44967265  0.32764964  0.97195449    -0.69600
O19         O  0.45009256  0.32739761  0.02866051    -0.69100
O20         O  0.55257134  0.32652775  0.02796937    -0.60400
O21         O  0.50158356  0.37792598  0.02847468    -0.72900
O22         O  0.50139160  0.27551188  0.02814949    -0.71700
Cu23       Cu  0.50095821  0.32702816  0.96962365     1.04600
Cu24       Cu  0.50139098  0.32676655  0.03029817     1.04300
C25         C  0.50152437  0.25959052  0.99975449     0.94600
C26         C  0.50148233  0.39415544  0.00019022     0.93800
C27         C  0.56850823  0.32673479  0.99955919     0.85900
C28         C  0.43385814  0.32820456  0.00040406     0.92200
O29         O  0.67399331  0.44731324  0.97142097    -0.71600
O30         O  0.67317878  0.54977642  0.97142039    -0.72500
O31         O  0.72503702  0.49851072  0.97126369    -0.61200
O32         O  0.62246934  0.49841756  0.97177907    -0.69600
O33         O  0.62283889  0.49834460  0.02845469    -0.69100
O34         O  0.72528153  0.49847259  0.02797067    -0.60400
O35         O  0.67347739  0.54980466  0.02812994    -0.72900
O36         O  0.67431471  0.44719809  0.02809318    -0.71700
Cu37       Cu  0.67370232  0.49853531  0.96948160     1.04600
Cu38       Cu  0.67404038  0.49848015  0.03015077     1.04300
C39         C  0.67414734  0.43112763  0.99973388     0.94600
C40         C  0.67278341  0.56581338  0.99974289     0.93800
C41         C  0.74119074  0.49817245  0.99958282     0.85900
C42         C  0.60653792  0.49839173  0.00020472     0.92200
O43         O  0.55283729  0.49876599  0.97214331    -0.71600
O44         O  0.45042068  0.49892276  0.97243587    -0.72500
O45         O  0.50192711  0.55029684  0.97267926    -0.61200
O46         O  0.50160200  0.44781173  0.97207901    -0.69600
O47         O  0.50187520  0.44746177  0.02876271    -0.69100
O48         O  0.50213326  0.54985554  0.02938905    -0.60400
O49         O  0.45056840  0.49849309  0.02914427    -0.72900
O50         O  0.55315463  0.49841085  0.02881903    -0.71700
Cu51       Cu  0.50164749  0.49901849  0.97035060     1.04600
Cu52       Cu  0.50190359  0.49859616  0.03102588     1.04300
C53         C  0.56911228  0.49850503  0.00040715     0.94600
C54         C  0.43447510  0.49815169  0.00079077     0.93800
C55         C  0.50254050  0.56609300  0.00114696     0.85900
C56         C  0.50167622  0.43153884  0.00034365     0.92200
O57         O  0.72339564  0.87805238  0.58617947    -0.71600
O58         O  0.62071658  0.87920069  0.58562477    -0.72500
O59         O  0.67235229  0.88000569  0.53456820    -0.61200
O60         O  0.67130479  0.87758267  0.63735125    -0.69600
O61         O  0.67195746  0.93427578  0.63825290    -0.69100
O62         O  0.67286613  0.93664936  0.53601124    -0.60400
O63         O  0.62147453  0.93585288  0.58682996    -0.72900
O64         O  0.72388716  0.93473287  0.58732298    -0.71700
Cu65       Cu  0.67199652  0.87667772  0.58590305     1.04600
Cu66       Cu  0.67262191  0.93731949  0.58717076     1.04300
C67         C  0.73968958  0.90621010  0.58646535     0.94600
C68         C  0.60498273  0.90779750  0.58630831     0.93800
C69         C  0.67266166  0.90878549  0.51916384     0.85900
C70         C  0.67081520  0.90569731  0.65380906     0.92200
O71         O  0.49929748  0.88228906  0.63747710    -0.71600
O72         O  0.49969693  0.88331858  0.53503573    -0.72500
O73         O  0.55063921  0.88086633  0.58640838    -0.61200
O74         O  0.44795394  0.88508692  0.58557232    -0.69600
O75         O  0.45010808  0.94173764  0.58618784    -0.69100
O76         O  0.55229146  0.93750863  0.58689299    -0.60400
O77         O  0.50152861  0.93995948  0.53549984    -0.72900
O78         O  0.50131620  0.93894715  0.63803007    -0.71700
Cu79       Cu  0.49925386  0.88088144  0.58617257     1.04600
Cu80       Cu  0.50133121  0.94150452  0.58673581     1.04300
C81         C  0.50078374  0.91042235  0.65378392     0.94600
C82         C  0.50083485  0.91176988  0.51916428     0.93800
C83         C  0.56757177  0.90868259  0.58654741     0.85900
C84         C  0.43301870  0.91411154  0.58520674     0.92200
O85         O  0.50047116  0.94139643  0.36344239    -0.71600
O86         O  0.50129517  0.94051710  0.46586447    -0.72500
O87         O  0.55214530  0.94068506  0.41427405    -0.61200
O88         O  0.44948288  0.94094225  0.41547853    -0.69600
O89         O  0.44980028  0.88423929  0.41494269    -0.69100
O90         O  0.55225120  0.88402067  0.41384224    -0.60400
O91         O  0.50134921  0.88383972  0.46545659    -0.72900
O92         O  0.50069565  0.88469039  0.36296747    -0.71700
Cu93       Cu  0.50083617  0.94288700  0.41471607     1.04600
Cu94       Cu  0.50101396  0.88222102  0.41422835     1.04300
C95         C  0.50078394  0.91319811  0.34718122     0.94600
C96         C  0.50122940  0.91205481  0.48176552     0.93800
C97         C  0.56833325  0.91231093  0.41396633     0.85900
C98         C  0.43362846  0.91253337  0.41600264     0.92200
O99         O  0.67311191  0.88221134  0.46471529    -0.71600
O100        O  0.67372185  0.88569145  0.36232514    -0.72500
O101        O  0.72483573  0.88446724  0.41414828    -0.61200
O102        O  0.62210135  0.88394401  0.41313217    -0.69600
O103        O  0.62177066  0.94058382  0.41478284    -0.69100
O104        O  0.72412654  0.94114447  0.41580313    -0.60400
O105        O  0.67318730  0.94237116  0.36383652    -0.72900
O106        O  0.67262825  0.93884990  0.46648089    -0.71700
Cu107      Cu  0.67348003  0.88208829  0.41347298     1.04600
Cu108      Cu  0.67292762  0.94272028  0.41526251     1.04300
C109        C  0.67279916  0.90998644  0.48172127     0.94600
C110        C  0.67333126  0.91445926  0.34704467     0.93800
C111        C  0.74050529  0.91295927  0.41543099     0.85900
C112        C  0.60580119  0.91225057  0.41391001     0.92200
O113        O  0.11495837  0.54992736  0.58668982    -0.71600
O114        O  0.11514340  0.44751667  0.58589472    -0.72500
O115        O  0.11501937  0.49907224  0.53525063    -0.61200
O116        O  0.11498029  0.49798036  0.63767801    -0.69600
O117        O  0.05828071  0.49801251  0.63749234    -0.69100
O118        O  0.05834883  0.49915277  0.53502765    -0.60400
O119        O  0.05847636  0.44745894  0.58570040    -0.72900
O120        O  0.05826173  0.55003368  0.58651502    -0.71700
Cu121      Cu  0.11700784  0.49866774  0.58642084     1.04600
Cu122      Cu  0.05634291  0.49871596  0.58621983     1.04300
C123        C  0.08659064  0.56601252  0.58637587     0.94600
C124        C  0.08689076  0.43137847  0.58556137     0.93800
C125        C  0.08671723  0.49910332  0.51903628     0.85900
C126        C  0.08660655  0.49744258  0.65360160     0.92200
O127        O  0.11663905  0.32787451  0.63691628    -0.71600
O128        O  0.11603932  0.32628349  0.53434812    -0.72500
O129        O  0.11567304  0.37804652  0.58505754    -0.61200
O130        O  0.11700584  0.27560249  0.58610451    -0.69600
O131        O  0.06031759  0.27511215  0.58635525    -0.69100
O132        O  0.05900977  0.37766540  0.58531058    -0.60400
O133        O  0.05938639  0.32585660  0.53463190    -0.72900
O134        O  0.05994651  0.32742089  0.63716133    -0.71700
Cu135      Cu  0.11832234  0.32689808  0.58562164     1.04600
Cu136      Cu  0.05767243  0.32641869  0.58589632     1.04300
C137        C  0.08837816  0.32858260  0.65304398     0.94600
C138        C  0.08760730  0.32599171  0.51835542     0.93800
C139        C  0.08717766  0.39396640  0.58522000     0.85900
C140        C  0.08886103  0.25932215  0.58596173     0.92200
O141        O  0.11635364  0.49859854  0.36343996    -0.71600
O142        O  0.11530749  0.49857973  0.46579441    -0.72500
O143        O  0.11518018  0.44747680  0.41455457    -0.61200
O144        O  0.11629414  0.54999475  0.41521228    -0.69600
O145        O  0.05960632  0.55072945  0.41453690    -0.69100
O146        O  0.05852403  0.44812822  0.41398267    -0.60400
O147        O  0.05864134  0.49930881  0.46528177    -0.72900
O148        O  0.05966713  0.49925549  0.36266389    -0.71700
Cu149      Cu  0.11775523  0.49867566  0.41470122     1.04600
Cu150      Cu  0.05710573  0.49943218  0.41401692     1.04300
C151        C  0.08821294  0.49836868  0.34702187     0.94600
C152        C  0.08686824  0.49900365  0.48164069     0.93800
C153        C  0.08672043  0.43167430  0.41426465     0.85900
C154        C  0.08809428  0.56638027  0.41573947     0.92200
O155        O  0.11483033  0.37797519  0.41380921    -0.71600
O156        O  0.11516137  0.27556867  0.41269452    -0.72500
O157        O  0.11425007  0.32762954  0.36190557    -0.61200
O158        O  0.11548741  0.32615487  0.46451884    -0.69600
O159        O  0.05883293  0.32624997  0.46498899    -0.69100
O160        O  0.05755634  0.32765458  0.36253448    -0.60400
O161        O  0.05847066  0.27553365  0.41328975    -0.72900
O162        O  0.05817373  0.37821038  0.41429411    -0.71700
Cu163      Cu  0.11691451  0.32680064  0.41319207     1.04600
Cu164      Cu  0.05626437  0.32687965  0.41378275     1.04300
C165        C  0.08652712  0.39422134  0.41415057     0.94600
C166        C  0.08689612  0.25951676  0.41306637     0.93800
C167        C  0.08568659  0.32814461  0.34620110     0.85900
C168        C  0.08731353  0.32606452  0.48088795     0.92200
O169        O  0.03549165  0.37369875  0.99980541    -0.71600
O170        O  0.13816034  0.37383924  0.00074438    -0.72500
O171        O  0.08723102  0.37532847  0.94895410    -0.61200
O172        O  0.08635912  0.37225824  0.05150875    -0.69600
O173        O  0.08671135  0.31557455  0.04986322    -0.69100
O174        O  0.08755126  0.31865264  0.94740326    -0.60400
O175        O  0.13842719  0.31716837  0.99911945    -0.72900
O176        O  0.03593447  0.31701715  0.99821169    -0.71700
Cu177      Cu  0.08681119  0.37578404  0.00030174     1.04600
Cu178      Cu  0.08717461  0.31511372  0.99858129     1.04300
C179        C  0.01968403  0.34528520  0.99897878     0.94600
C180        C  0.15433290  0.34551844  0.00007623     0.93800
C181        C  0.08751842  0.34745044  0.93215267     0.85900
C182        C  0.08629467  0.34343348  0.06670148     0.92200
O183        O  0.03740580  0.51043886  0.00117575    -0.71600
O184        O  0.13986607  0.50801697  0.99931236    -0.72500
O185        O  0.08765453  0.50929005  0.94903878    -0.61200
O186        O  0.08970673  0.50920496  0.05150397    -0.69600
O187        O  0.08863300  0.45251433  0.05164972    -0.69100
O188        O  0.08653782  0.45260441  0.94900314    -0.60400
O189        O  0.13886653  0.45133030  0.99934693    -0.72900
O190        O  0.03625800  0.45375108  0.00125220    -0.71700
Cu191      Cu  0.08868939  0.51122359  0.00026125     1.04600
Cu192      Cu  0.08752184  0.45054324  0.00031881     1.04300
C193        C  0.02080288  0.48247790  0.00146111     0.94600
C194        C  0.15539160  0.47933424  0.99902354     0.93800
C195        C  0.08682717  0.48098267  0.93299486     0.85900
C196        C  0.08955819  0.48087954  0.06760874     0.92200
O197        O  0.13788227  0.91306087  0.46245755    -0.71600
O198        O  0.03526493  0.91467535  0.45952825    -0.72500
O199        O  0.08602514  0.86260650  0.46333647    -0.61200
O200        O  0.08712065  0.96515140  0.45877933    -0.69600
O201        O  0.08861745  0.96271149  0.40215068    -0.69100
O202        O  0.08752002  0.86023527  0.40670865    -0.60400
O203        O  0.03684732  0.91225616  0.40289567    -0.72900
O204        O  0.13928934  0.91064160  0.40583510    -0.71700
Cu205      Cu  0.08651515  0.91396855  0.46302361     1.04600
Cu206      Cu  0.08811574  0.91137916  0.40240877     1.04300
C207        C  0.15461274  0.91143728  0.43458610     0.94600
C208        C  0.02003585  0.91380818  0.43071766     0.93800
C209        C  0.08674351  0.84539404  0.43571428     0.85900
C210        C  0.08795030  0.97995515  0.42976298     0.92200
O211        O  0.13880173  0.91421957  0.59570041    -0.71600
O212        O  0.03632541  0.91313759  0.59873691    -0.72500
O213        O  0.08822492  0.86241880  0.59870066    -0.61200
O214        O  0.08708676  0.96481882  0.59577188    -0.69600
O215        O  0.08536550  0.96351508  0.53910230    -0.69100
O216        O  0.08648386  0.86085036  0.54204396    -0.60400
O217        O  0.03452751  0.91166614  0.54207927    -0.72900
O218        O  0.13716137  0.91273660  0.53904418    -0.71700
Cu219      Cu  0.08765209  0.91369343  0.59920593     1.04600
Cu220      Cu  0.08580182  0.91212022  0.53855695     1.04300
C221        C  0.15399980  0.91390760  0.56692218     0.94600
C222        C  0.01938940  0.91212256  0.57090348     0.93800
C223        C  0.08748028  0.84560694  0.57083744     0.85900
C224        C  0.08634295  0.98019207  0.56705472     0.92200
O225        O  0.68291395  0.91366796  0.94756140    -0.71600
O226        O  0.68771093  0.91213162  0.04997688    -0.72500
O227        O  0.68592142  0.86164793  0.99798414    -0.61200
O228        O  0.68460285  0.96413322  0.99945073    -0.69600
O229        O  0.62795809  0.96358359  0.00192258    -0.69100
O230        O  0.62927938  0.86107659  0.00045378    -0.60400
O231        O  0.63107432  0.91157566  0.05249259    -0.72900
O232        O  0.62627487  0.91311377  0.94993924    -0.71700
Cu233      Cu  0.68728652  0.91291341  0.99866286     1.04600
Cu234      Cu  0.62665272  0.91231535  0.00130549     1.04300
C235        C  0.65389376  0.91362459  0.93273421     0.94600
C236        C  0.66013876  0.91164420  0.06725592     0.93800
C237        C  0.65780178  0.84534459  0.99894122     0.85900
C238        C  0.65607070  0.97987408  0.00082993     0.92200
O239        O  0.48904945  0.86082721  0.00034726    -0.71600
O240        O  0.48635434  0.96327894  0.99840700    -0.72500
O241        O  0.48953307  0.91115564  0.94814544    -0.61200
O242        O  0.48581058  0.91291991  0.05052286    -0.69600
O243        O  0.54246446  0.91418244  0.05262730    -0.69100
O244        O  0.54618181  0.91239945  0.95006385    -0.60400
O245        O  0.54300852  0.96454178  0.00044576    -0.72900
O246        O  0.54570278  0.86200997  0.00240509    -0.71700
Cu247      Cu  0.48569531  0.91199875  0.99926290     1.04600
Cu248      Cu  0.54634223  0.91333484  0.00144775     1.04300
C249        C  0.51775552  0.84540052  0.00173103     0.94600
C250        C  0.51427402  0.97992725  0.99925323     0.93800
C251        C  0.51837588  0.91149710  0.93308237     0.85900
C252        C  0.51355706  0.91380696  0.06758329     0.92200
C253        C  0.08801503  0.08402072  0.42364942     0.18400
C254        C  0.09899646  0.09977705  0.39349888    -0.10700
C255        C  0.09886354  0.13538877  0.39078698    -0.11600
C256        C  0.08778519  0.15544080  0.41823112     0.20000
C257        C  0.07690191  0.13968798  0.44842743    -0.13600
C258        C  0.07693198  0.10407375  0.45109143    -0.11900
C259        C  0.08748010  0.19211636  0.41544495     0.00900
C260        C  0.08713492  0.22286729  0.41380057    -0.31900
C261        C  0.08802031  0.04733156  0.42631793     0.02300
C262        C  0.08803952  0.01658432  0.42811570    -0.33600
H263        H  0.10758926  0.08454578  0.37210099     0.13400
H264        H  0.10734931  0.14726199  0.36732429     0.13200
H265        H  0.06831108  0.15490979  0.46983663     0.13000
H266        H  0.06823656  0.09218730  0.47446286     0.12100
C267        C  0.08487586  0.33844546  0.17073844     0.18400
C268        C  0.06225357  0.35849072  0.18987649    -0.10700
C269        C  0.06220228  0.35623467  0.22552286    -0.11600
C270        C  0.08464881  0.33379469  0.24217511     0.20000
C271        C  0.10714970  0.31365697  0.22301693    -0.13600
C272        C  0.10727359  0.31599621  0.18740157    -0.11900
C273        C  0.08476707  0.33149126  0.27886430     0.00900
C274        C  0.08516411  0.32967564  0.30959451    -0.31900
C275        C  0.08514827  0.34080875  0.13405660     0.02300
C276        C  0.08566195  0.34227552  0.10331340    -0.33600
H277        H  0.04474560  0.37585632  0.17726889     0.13400
H278        H  0.04471046  0.37196683  0.24006616     0.13200
H279        H  0.12461056  0.29622688  0.23560269     0.13000
H280        H  0.12483485  0.30032813  0.17287097     0.12100
C281        C  0.08882117  0.74127635  0.43426966     0.18400
C282        C  0.07210942  0.72075357  0.45828076    -0.10700
C283        C  0.07238235  0.68518460  0.45471332    -0.11600
C284        C  0.08928041  0.67000971  0.42704872     0.20000
C285        C  0.10634098  0.69054088  0.40335504    -0.13600
C286        C  0.10612004  0.72603581  0.40695291    -0.11900
C287        C  0.08878069  0.63349129  0.42258825     0.00900
C288        C  0.08842487  0.60292833  0.41876706    -0.31900
C289        C  0.08763004  0.77795531  0.43688734     0.02300
C290        C  0.08695262  0.80875050  0.43716677    -0.33600
H291        H  0.05865303  0.73222727  0.47952584     0.13400
H292        H  0.05920375  0.66958367  0.47329278     0.13200
H293        H  0.11955616  0.67912960  0.38192668     0.13000
H294        H  0.11913294  0.74161606  0.38823883     0.12100
C295        C  0.09073441  0.49042006  0.24310983     0.18400
C296        C  0.09782382  0.51900984  0.22287222    -0.10700
C297        C  0.09825750  0.51616860  0.18729494    -0.11600
C298        C  0.09163548  0.48470500  0.17171986     0.20000
C299        C  0.08491940  0.45599830  0.19194537    -0.13600
C300        C  0.08445630  0.45883270  0.22756074    -0.11900
C301        C  0.09117345  0.48215591  0.13502869     0.00900
C302        C  0.09047655  0.48104047  0.10425942    -0.31900
C303        C  0.08963187  0.49364712  0.27974040     0.02300
C304        C  0.08876310  0.49632737  0.31041196    -0.33600
H305        H  0.10279094  0.54352992  0.23458220     0.13400
H306        H  0.10351633  0.53853393  0.17193797     0.13200
H307        H  0.07985674  0.43154927  0.18017456     0.13000
H308        H  0.07903027  0.43650757  0.24291904     0.12100
C309        C  0.08752780  0.34524103  0.82805268     0.18400
C310        C  0.07124554  0.31759438  0.81240344    -0.10700
C311        C  0.07145933  0.31438764  0.77687827    -0.11600
C312        C  0.08792940  0.33882581  0.75674176     0.20000
C313        C  0.10401782  0.36667419  0.77233895    -0.13600
C314        C  0.10389756  0.36982237  0.80793954    -0.11900
C315        C  0.08843965  0.33503021  0.72017051     0.00900
C316        C  0.08854494  0.33157540  0.68957448    -0.31900
C317        C  0.08780283  0.34783449  0.86472846     0.02300
C318        C  0.08776430  0.34837892  0.89551352    -0.33600
H319        H  0.05855880  0.29840582  0.82767969     0.13400
H320        H  0.05891994  0.29278369  0.76512596     0.13200
H321        H  0.11677494  0.38579547  0.75703652     0.13000
H322        H  0.11665385  0.39126358  0.81975292     0.12100
C323        C  0.08957580  0.15538934  0.57848005     0.18400
C324        C  0.10278092  0.14015027  0.54892817    -0.10700
C325        C  0.10235140  0.10460891  0.54532759    -0.11600
C326        C  0.08853308  0.08416685  0.57117749     0.20000
C327        C  0.07546994  0.09941679  0.60074707    -0.13600
C328        C  0.07599932  0.13490812  0.60439905    -0.11900
C329        C  0.08778415  0.04757684  0.56765868     0.00900
C330        C  0.08694175  0.01682839  0.56640174    -0.31900
C331        C  0.08960987  0.19199158  0.58208448     0.02300
C332        C  0.08932208  0.22268823  0.58454363    -0.33600
H333        H  0.11333325  0.15571489  0.52869110     0.13400
H334        H  0.11273642  0.09310487  0.52245697     0.13200
H335        H  0.06482940  0.08387052  0.62095077     0.13000
H336        H  0.06572599  0.14636971  0.62734766     0.12100
C337        C  0.08724573  0.74151946  0.57592653     0.18400
C338        C  0.07380317  0.72562635  0.60497547    -0.10700
C339        C  0.07361846  0.69000803  0.60746115    -0.11600
C340        C  0.08685190  0.67007998  0.58089720     0.20000
C341        C  0.10022490  0.68596666  0.55179644    -0.13600
C342        C  0.10046214  0.72159787  0.54934004    -0.11900
C343        C  0.08668498  0.63339404  0.58349324     0.00900
C344        C  0.08657544  0.60265234  0.58528976    -0.31900
C345        C  0.08753185  0.77821406  0.57350534     0.02300
C346        C  0.08762909  0.80896924  0.57197927    -0.33600
H347        H  0.06351311  0.74075601  0.62569226     0.13400
H348        H  0.06318698  0.67802673  0.63005850     0.13200
H349        H  0.11047026  0.67083877  0.53105406     0.13000
H350        H  0.11094394  0.73359155  0.52677243     0.12100
C351        C  0.08650161  0.49039388  0.75754235     0.18400
C352        C  0.09871589  0.51728038  0.77761538    -0.10700
C353        C  0.09865712  0.51454235  0.81320249    -0.11600
C354        C  0.08633666  0.48492384  0.82892457     0.20000
C355        C  0.07407729  0.45802961  0.80886722    -0.13600
C356        C  0.07423732  0.46071742  0.77324742    -0.11900
C357        C  0.08619157  0.48233814  0.86559523     0.00900
C358        C  0.08633397  0.48117604  0.89635809    -0.31900
C359        C  0.08650668  0.49332770  0.72089662     0.02300
C360        C  0.08654934  0.49562576  0.69019652    -0.33600
H361        H  0.10825303  0.54033644  0.76576828     0.13400
H362        H  0.10815458  0.53551667  0.82844763     0.13200
H363        H  0.06436194  0.43507157  0.82074862     0.13000
H364        H  0.06474940  0.43974279  0.75799412     0.12100
C365        C  0.91597844  0.91582986  0.42557540     0.18400
C366        C  0.89613329  0.91969079  0.45504214    -0.10700
C367        C  0.86049386  0.91931846  0.45278922    -0.11600
C368        C  0.84452725  0.91518607  0.42102527     0.20000
C369        C  0.86438071  0.91169634  0.39152548    -0.13600
C370        C  0.90000456  0.91199152  0.39379660    -0.11900
C371        C  0.80784434  0.91424104  0.41870032     0.00900
C372        C  0.77712187  0.91341567  0.41688775    -0.31900
C373        C  0.95267207  0.91538475  0.42793743     0.02300
C374        C  0.98341511  0.91468118  0.42950222    -0.33600
H375        H  0.90820596  0.92285623  0.47970725     0.13400
H376        H  0.84542703  0.92211035  0.47577789     0.13200
H377        H  0.85233480  0.90855176  0.36683220     0.13000
H378        H  0.91507341  0.90904660  0.37083077     0.12100
C379        C  0.66522032  0.91204317  0.17139142     0.18400
C380        C  0.64080913  0.93020341  0.19020531    -0.10700
C381        C  0.64282192  0.93119238  0.22584973    -0.11600
C382        C  0.66928920  0.91405567  0.24288697     0.20000
C383        C  0.69360391  0.89575000  0.22408426    -0.13600
C384        C  0.69158383  0.89475300  0.18843415    -0.11900
C385        C  0.67132666  0.91501867  0.27961165     0.00900
C386        C  0.67262647  0.91527206  0.31038764    -0.31900
C387        C  0.66336942  0.91141833  0.13465220     0.02300
C388        C  0.66185817  0.91131758  0.10388592    -0.33600
H389        H  0.62027636  0.94362589  0.17733154     0.13400
H390        H  0.62378199  0.94530054  0.24009590     0.13200
H391        H  0.71410843  0.88229657  0.23696579     0.13000
H392        H  0.71058472  0.88059837  0.17418125     0.12100
C393        C  0.25873632  0.90865355  0.43306575     0.18400
C394        C  0.27833323  0.92974226  0.45422203    -0.10700
C395        C  0.31388741  0.93028460  0.45096344    -0.11600
C396        C  0.33001054  0.90984755  0.42642733     0.20000
C397        C  0.31045240  0.88832319  0.40569353    -0.13600
C398        C  0.27492272  0.88772685  0.40900469    -0.11900
C399        C  0.36650093  0.91128475  0.42215291     0.00900
C400        C  0.39707718  0.91225048  0.41870600    -0.31900
C401        C  0.22202478  0.90936450  0.43510191     0.02300
C402        C  0.19124770  0.91033576  0.43548079    -0.33600
H403        H  0.26612243  0.94600172  0.47294728     0.13400
H404        H  0.32873941  0.94688780  0.46728636     0.13200
H405        H  0.32262424  0.87231270  0.38673150     0.13000
H406        H  0.26005533  0.87131457  0.39250148     0.12100
C407        C  0.50524011  0.91407710  0.24311441     0.18400
C408        C  0.47625422  0.92187215  0.22360410    -0.10700
C409        C  0.47813265  0.92205342  0.18795983    -0.11600
C410        C  0.50901730  0.91444075  0.17163970     0.20000
C411        C  0.53803490  0.90669157  0.19114333    -0.13600
C412        C  0.53616024  0.90651966  0.22680011    -0.11900
C413        C  0.51085762  0.91445131  0.13493387     0.00900
C414        C  0.51220147  0.91427983  0.10418555    -0.31900
C415        C  0.50322971  0.91381013  0.27981465     0.02300
C416        C  0.50173411  0.91355145  0.31055827    -0.33600
H417        H  0.45222988  0.92777267  0.23593436     0.13400
H418        H  0.45553917  0.92807899  0.17314796     0.13200
H419        H  0.56205625  0.90076932  0.17880689     0.13000
H420        H  0.55875823  0.90049590  0.24160881     0.12100
C421        C  0.51586129  0.90959626  0.82899640     0.18400
C422        C  0.54081467  0.92501373  0.80863142    -0.10700
C423        C  0.53754709  0.92480060  0.77304656    -0.11600
C424        C  0.50921523  0.90933847  0.75767491     0.20000
C425        C  0.48436174  0.89381770  0.77805290    -0.13600
C426        C  0.48769002  0.89393349  0.81359658    -0.11900
C427        C  0.50548327  0.90960388  0.72107457     0.00900
C428        C  0.50269371  0.90994695  0.69039904    -0.31900
C429        C  0.51864420  0.91031222  0.86566542     0.02300
C430        C  0.51937667  0.91086591  0.89644661    -0.33600
H431        H  0.56264173  0.93731053  0.82024047     0.13400
H432        H  0.55697900  0.93682898  0.75756233     0.13200
H433        H  0.46237051  0.88177355  0.76648484     0.13000
H434        H  0.46819846  0.88199544  0.82907512     0.12100
C435        C  0.25800392  0.91835187  0.56897986     0.18400
C436        C  0.27335922  0.93338341  0.59755006    -0.10700
C437        C  0.30890792  0.93349440  0.60083799    -0.11600
C438        C  0.32931480  0.91859546  0.57555200     0.20000
C439        C  0.31398971  0.90416638  0.54663356    -0.13600
C440        C  0.27841808  0.90397931  0.54339173    -0.11900
C441        C  0.36585447  0.91734027  0.57967836     0.00900
C442        C  0.39646032  0.91580378  0.58284089    -0.31900
C443        C  0.22134777  0.91676474  0.56659261     0.02300
C444        C  0.19060715  0.91524803  0.56602745    -0.33600
H445        H  0.25784309  0.94458300  0.61749502     0.13400
H446        H  0.32044176  0.94478847  0.62326417     0.13200
H447        H  0.32949263  0.89266867  0.52684631     0.13000
H448        H  0.26684436  0.89225355  0.52121233     0.12100
C449        C  0.91527859  0.90918415  0.57608086     0.18400
C450        C  0.89607146  0.89249942  0.55096840    -0.10700
C451        C  0.86044619  0.89147885  0.55335877    -0.11600
C452        C  0.84382818  0.90700012  0.58097323     0.20000
C453        C  0.86305124  0.92359671  0.60611749    -0.13600
C454        C  0.89865254  0.92469509  0.60367522    -0.11900
C455        C  0.80711495  0.90613248  0.58342826     0.00900
C456        C  0.77636002  0.90587603  0.58524693    -0.31900
C457        C  0.95198247  0.91033628  0.57365820     0.02300
C458        C  0.98273457  0.91128642  0.57211208    -0.33600
H459        H  0.90861688  0.88029738  0.52958237     0.13400
H460        H  0.84589297  0.87861494  0.53371337     0.13200
H461        H  0.85052439  0.93572014  0.62756277     0.13000
H462        H  0.91319805  0.93762861  0.62327920     0.12100
C463        C  0.65479639  0.91319041  0.82862737     0.18400
C464        C  0.68292339  0.92782517  0.81224278    -0.10700
C465        C  0.68602387  0.92586084  0.77675655    -0.11600
C466        C  0.66100906  0.90925769  0.75741642     0.20000
C467        C  0.63256601  0.89507197  0.77372338    -0.13600
C468        C  0.62952453  0.89694074  0.80927245    -0.11900
C469        C  0.66476702  0.90670573  0.72093229     0.00900
C470        C  0.66807776  0.90543492  0.69035145    -0.31900
C471        C  0.65263381  0.91390638  0.86532221     0.02300
C472        C  0.65244199  0.91400228  0.89611116    -0.33600
H473        H  0.70264539  0.94040902  0.82693142     0.13400
H474        H  0.70804483  0.93703265  0.76443512     0.13200
H475        H  0.61295283  0.88232414  0.75903070     0.13000
H476        H  0.60771589  0.88544395  0.82166613     0.12100
C477        C  0.51002139  0.66997378  0.00179712     0.18400
C478        C  0.48891659  0.68983919  0.98076171    -0.10700
C479        C  0.49170847  0.72539927  0.98096769    -0.11600
C480        C  0.51561980  0.74132156  0.00220406     0.20000
C481        C  0.53685896  0.72147068  0.02316335    -0.13600
C482        C  0.53409298  0.68586254  0.02292774    -0.11900
C483        C  0.51791221  0.77799816  0.00263168     0.00900
C484        C  0.51849604  0.80877305  0.00243791    -0.31900
C485        C  0.50687845  0.63335614  0.00168093     0.02300
C486        C  0.50439217  0.60268091  0.00142609    -0.33600
H487        H  0.47026163  0.67785269  0.96428662     0.13400
H488        H  0.47514691  0.74048069  0.96466920     0.13200
H489        H  0.55545696  0.73348903  0.03967907     0.13000
H490        H  0.55062608  0.67076082  0.03923478     0.12100
C491        C  0.33067385  0.48952032  0.99981475     0.18400
C492        C  0.30990562  0.51597590  0.01198108    -0.10700
C493        C  0.27440456  0.51261644  0.01149020    -0.11600
C494        C  0.25941943  0.48280012  0.99878805     0.20000
C495        C  0.28015860  0.45631979  0.98653574    -0.13600
C496        C  0.31572055  0.45963598  0.98712022    -0.11900
C497        C  0.22279673  0.47969311  0.99832023     0.00900
C498        C  0.19202991  0.47871783  0.99844111    -0.31900
C499        C  0.36725085  0.49315304  0.00032822     0.02300
C500        C  0.39789235  0.49604409  0.00071575    -0.33600
H501        H  0.32114958  0.53918697  0.02183476     0.13400
H502        H  0.25863852  0.53327702  0.02097821     0.13200
H503        H  0.26886413  0.43320786  0.97651989     0.13000
H504        H  0.33150953  0.43898348  0.97764918     0.16900
C505        C  0.66629897  0.66982257  0.99870298     0.18400
C506        C  0.69574578  0.68966354  0.00225358    -0.10700
C507        C  0.69340979  0.72527626  0.00191410    -0.11600
C508        C  0.66161506  0.74126643  0.99800123     0.20000
C509        C  0.63213746  0.72145128  0.99432440    -0.13600
C510        C  0.63446710  0.68579633  0.99469742    -0.11900
C511        C  0.65937050  0.77795917  0.99801629     0.00900
C512        C  0.65831435  0.80872137  0.99834333    -0.31900
C513        C  0.66883210  0.63313900  0.99922746     0.02300
C514        C  0.67099825  0.60242235  0.99961147    -0.33600
H515        H  0.72047679  0.67761081  0.00534759     0.13400
H516        H  0.71636224  0.74033237  0.00477492     0.13200
H517        H  0.60742654  0.73354130  0.99123807     0.13000
H518        H  0.61150823  0.67072894  0.99192098     0.12100
C519        C  0.91669245  0.48725074  0.00140250     0.18400
C520        C  0.89685315  0.46250086  0.01781044    -0.10700
C521        C  0.86121719  0.46496685  0.01723803    -0.11600
C522        C  0.84524730  0.49226129  0.00035828     0.20000
C523        C  0.86509695  0.51699966  0.98397779    -0.13600
C524        C  0.90070852  0.51448975  0.98448622    -0.11900
C525        C  0.80856177  0.49492464  0.99986211     0.00900
C526        C  0.77782632  0.49686867  0.99956606    -0.31900
C527        C  0.95339363  0.48481214  0.00187396     0.02300
C528        C  0.98415857  0.48341961  0.00187929    -0.33600
H529        H  0.90890838  0.44134475  0.03100234     0.13400
H530        H  0.84614992  0.44564356  0.02995525     0.13200
H531        H  0.85305789  0.53819791  0.97083856     0.13000
H532        H  0.91576870  0.53378287  0.97171761     0.12100
C533        C  0.32991937  0.33644959  0.00034730     0.18400
C534        C  0.31003306  0.31142847  0.98444728    -0.10700
C535        C  0.27444854  0.31423556  0.98435613    -0.11600
C536        C  0.25849537  0.34206328  0.00018986     0.20000
C537        C  0.27836458  0.36717796  0.01602466    -0.13600
C538        C  0.31400020  0.36442210  0.01603368    -0.11900
C539        C  0.22178379  0.34450440  0.00039912     0.00900
C540        C  0.19099812  0.34546275  0.00034850    -0.31900
C541        C  0.36657515  0.33324050  0.00061891     0.02300
C542        C  0.39725772  0.33047604  0.00061355    -0.33600
H543        H  0.32202702  0.28972049  0.97221221     0.13400
H544        H  0.25937514  0.29464500  0.97205620     0.13200
H545        H  0.26633201  0.38878496  0.02839849     0.13000
H546        H  0.32909219  0.38399208  0.02834588     0.12100
C547        C  0.51068636  0.08403335  0.99989723     0.18400
C548        C  0.48303315  0.10055797  0.01544082    -0.10700
C549        C  0.48111830  0.13620664  0.01554577    -0.11600
C550        C  0.50684759  0.15552427  0.00009578     0.20000
C551        C  0.53466850  0.13901129  0.98480039    -0.13600
C552        C  0.53658659  0.10334458  0.98469880    -0.11900
C553        C  0.50459050  0.19222475  0.99984139     0.00900
C554        C  0.50280927  0.22296486  0.99969568    -0.31900
C555        C  0.51232146  0.04731444  0.99938629     0.02300
C556        C  0.51332555  0.01654966  0.99911178    -0.33600
H557        H  0.46290687  0.08589456  0.02734476     0.13400
H558        H  0.45955130  0.14868596  0.02753105     0.13200
H559        H  0.55479112  0.15367749  0.97289014     0.13000
H560        H  0.55815306  0.09085531  0.97271728     0.12100
C561        C  0.84444387  0.33346677  0.00005796     0.18400
C562        C  0.85934231  0.36480791  0.99151071    -0.10700
C563        C  0.89488317  0.36819550  0.99137883    -0.11600
C564        C  0.91568797  0.34029871  0.99990608     0.20000
C565        C  0.90077316  0.30904034  0.00863511    -0.13600
C566        C  0.86525890  0.30562724  0.00869484    -0.11900
C567        C  0.95230005  0.34348757  0.99942292     0.00900
C568        C  0.98304195  0.34496832  0.99908984    -0.31900
C569        C  0.80786519  0.32985452  0.99985368     0.02300
C570        C  0.77718337  0.32741587  0.99966364    -0.33600
H571        H  0.84351807  0.38654029  0.98483334     0.13400
H572        H  0.90612068  0.39244963  0.98448736     0.13200
H573        H  0.91659527  0.28729317  0.01526018     0.13000
H574        H  0.85405097  0.28129450  0.01537887     0.12100
C575        C  0.65786519  0.08394299  0.99968634     0.18400
C576        C  0.63422405  0.10378736  0.01778714    -0.10700
C577        C  0.63673388  0.13941507  0.01746660    -0.11600
C578        C  0.66290035  0.15530600  0.99905035     0.20000
C579        C  0.68625462  0.13544931  0.98066384    -0.13600
C580        C  0.68375169  0.09987773  0.98098770    -0.11900
C581        C  0.66612656  0.19190048  0.99924383     0.00900
C582        C  0.66907584  0.22252535  0.99930859    -0.31900
C583        C  0.65603510  0.04726216  0.00057625     0.02300
C584        C  0.65563692  0.01649473  0.00094162    -0.33600
H585        H  0.61403571  0.09174623  0.03225457     0.13400
H586        H  0.61844932  0.15451713  0.03168915     0.13200
H587        H  0.70652188  0.14745176  0.96627712     0.13000
H588        H  0.70212675  0.08479849  0.96685736     0.12100
loop_ 
_geom_bond_atom_site_label_1 
_geom_bond_atom_site_label_2 
_geom_bond_distance 
_geom_bond_site_symmetry_2 
_ccdc_geom_bond_type 
O1           Cu9   2.010       .  S
O1           C11   1.278       .  A
O2           Cu9   2.013       .  S
O2           C12   1.277       .  A
O3           Cu9   2.011       .  S
O3           C13   1.277       .  A
O4           Cu9   2.011       .  S
O4           C14   1.278       .  A
O5          Cu10   2.010       .  S
O5           C14   1.278   1_554  A
O6          Cu10   2.010       .  S
O6           C13   1.276   1_554  A
O7          Cu10   2.011       .  S
O7           C12   1.276   1_554  A
O8          Cu10   2.008       .  S
O8           C11   1.278   1_554  A
Cu9         Cu10   2.378   1_556  S
C11          C27   1.467       .  S
C12         C570   1.437       .  S
C13         C582   1.436       .  S
C14          C39   1.468       .  S
O15         Cu23   2.012       .  S
O15          C25   1.277       .  A
O16         Cu23   2.007       .  S
O16          C26   1.277   1_556  A
O17         Cu23   2.010       .  S
O17          C27   1.278       .  A
O18         Cu23   2.013       .  S
O18          C28   1.277   1_556  A
O19         Cu24   2.012       .  S
O19          C28   1.277       .  A
O20         Cu24   2.008       .  S
O20          C27   1.278   1_554  A
O21         Cu24   2.006       .  S
O21          C26   1.277       .  A
O22         Cu24   2.011       .  S
O22          C25   1.276   1_554  A
Cu23        Cu24   2.378   1_556  S
C25         C554   1.436       .  S
C26          C56   1.465       .  S
C28         C542   1.437       .  S
O29         Cu37   2.009       .  S
O29          C39   1.278       .  A
O30         Cu37   2.010       .  S
O30          C40   1.276       .  A
O31         Cu37   2.013       .  S
O31          C41   1.277       .  A
O32         Cu37   2.011       .  S
O32          C42   1.278   1_556  A
O33         Cu38   2.008       .  S
O33          C42   1.277       .  A
O34         Cu38   2.011       .  S
O34          C41   1.276   1_554  A
O35         Cu38   2.013       .  S
O35          C40   1.277   1_554  A
O36         Cu38   2.012       .  S
O36          C39   1.278   1_554  A
Cu37        Cu38   2.378   1_556  S
C40         C514   1.436       .  S
C41         C526   1.437       .  S
C42          C53   1.467       .  S
O43         Cu51   2.008       .  S
O43          C53   1.277   1_556  A
O44         Cu51   2.010       .  S
O44          C54   1.276   1_556  A
O45         Cu51   2.012       .  S
O45          C55   1.277   1_556  A
O46         Cu51   2.008       .  S
O46          C56   1.278   1_556  A
O47         Cu52   2.006       .  S
O47          C56   1.277       .  A
O48         Cu52   2.010       .  S
O48          C55   1.276       .  A
O49         Cu52   2.014       .  S
O49          C54   1.277       .  A
O50         Cu52   2.011       .  S
O50          C53   1.278       .  A
Cu51        Cu52   2.378   1_556  S
C54         C500   1.437       .  S
C55         C486   1.436       .  S
O57         Cu65   2.016       .  S
O57          C67   1.277       .  A
O58         Cu65   2.012       .  S
O58          C68   1.278       .  A
O59         Cu65   2.016       .  S
O59          C69   1.279       .  A
O60         Cu65   2.017       .  S
O60          C70   1.277       .  A
O61         Cu66   2.006       .  S
O61          C70   1.276       .  A
O62         Cu66   2.005       .  S
O62          C69   1.277       .  A
O63         Cu66   2.006       .  S
O63          C68   1.278       .  A
O64         Cu66   2.012       .  S
O64          C67   1.277       .  A
Cu65        Cu66   2.378       .  S
C67         C456   1.438       .  S
C68          C83   1.467       .  S
C69         C109   1.468       .  S
C70         C470   1.436       .  S
O71         Cu79   2.011       .  S
O71          C81   1.276       .  A
O72         Cu79   2.006       .  S
O72          C82   1.277       .  A
O73         Cu79   2.014       .  S
O73          C83   1.278       .  A
O74         Cu79   2.017       .  S
O74          C84   1.278       .  A
O75         Cu80   2.008       .  S
O75          C84   1.276       .  A
O76         Cu80   2.003       .  S
O76          C83   1.277       .  A
O77         Cu80   2.009       .  S
O77          C82   1.278       .  A
O78         Cu80   2.013       .  S
O78          C81   1.277       .  A
Cu79        Cu80   2.378       .  S
C81         C428   1.437       .  S
C82          C96   1.466       .  S
C84         C442   1.437       .  S
O85         Cu93   2.010       .  S
O85          C95   1.276       .  A
O86         Cu93   2.007       .  S
O86          C96   1.277       .  A
O87         Cu93   2.013       .  S
O87          C97   1.279       .  A
O88         Cu93   2.015       .  S
O88          C98   1.277       .  A
O89         Cu94   2.009       .  S
O89          C98   1.276       .  A
O90         Cu94   2.010       .  S
O90          C97   1.277       .  A
O91         Cu94   2.009       .  S
O91          C96   1.278       .  A
O92         Cu94   2.011       .  S
O92          C95   1.277       .  A
Cu93        Cu94   2.378       .  S
C95         C416   1.436       .  S
C97         C112   1.469       .  S
C98         C400   1.437       .  S
O99        Cu107   2.008       .  S
O99         C109   1.277       .  A
O100       Cu107   2.009       .  S
O100        C110   1.276       .  A
O101       Cu107   2.016       .  S
O101        C111   1.277       .  A
O102       Cu107   2.015       .  S
O102        C112   1.279       .  A
O103       Cu108   2.007       .  S
O103        C112   1.277       .  A
O104       Cu108   2.008       .  S
O104        C111   1.276       .  A
O105       Cu108   2.016       .  S
O105        C110   1.277       .  A
O106       Cu108   2.013       .  S
O106        C109   1.279       .  A
Cu107      Cu108   2.377       .  S
C110        C386   1.437       .  S
C111        C372   1.437       .  S
O113       Cu121   2.010       .  S
O113        C123   1.276       .  A
O114       Cu121   2.006       .  S
O114        C124   1.277       .  A
O115       Cu121   2.007       .  S
O115        C125   1.278       .  A
O116       Cu121   2.011       .  S
O116        C126   1.277       .  A
O117       Cu122   2.011       .  S
O117        C126   1.276       .  A
O118       Cu122   2.008       .  S
O118        C125   1.277       .  A
O119       Cu122   2.010       .  S
O119        C124   1.278       .  A
O120       Cu122   2.013       .  S
O120        C123   1.277       .  A
Cu121      Cu122   2.378       .  S
C123        C344   1.437       .  S
C124        C139   1.466       .  S
C125        C152   1.466       .  S
C126        C360   1.436       .  S
O127       Cu135   2.012       .  S
O127        C137   1.277       .  A
O128       Cu135   2.011       .  S
O128        C138   1.278       .  A
O129       Cu135   2.007       .  S
O129        C139   1.278       .  A
O130       Cu135   2.011       .  S
O130        C140   1.276       .  A
O131       Cu136   2.013       .  S
O131        C140   1.277       .  A
O132       Cu136   2.009       .  S
O132        C139   1.278       .  A
O133       Cu136   2.010       .  S
O133        C138   1.278       .  A
O134       Cu136   2.011       .  S
O134        C137   1.277       .  A
Cu135      Cu136   2.378       .  S
C137        C316   1.437       .  S
C138        C168   1.468       .  S
C140        C332   1.437       .  S
O141       Cu149   2.010       .  S
O141        C151   1.276       .  A
O142       Cu149   2.005       .  S
O142        C152   1.277       .  A
O143       Cu149   2.010       .  S
O143        C153   1.278       .  A
O144       Cu149   2.012       .  S
O144        C154   1.277       .  A
O145       Cu150   2.013       .  S
O145        C154   1.277       .  A
O146       Cu150   2.011       .  S
O146        C153   1.278       .  A
O147       Cu150   2.010       .  S
O147        C152   1.278       .  A
O148       Cu150   2.015       .  S
O148        C151   1.277       .  A
Cu149      Cu150   2.378       .  S
C151        C304   1.437       .  S
C153        C165   1.468       .  S
C154        C288   1.438       .  S
O155       Cu163   2.007       .  S
O155        C165   1.277       .  A
O156       Cu163   2.009       .  S
O156        C166   1.276       .  A
O157       Cu163   2.013       .  S
O157        C167   1.277       .  A
O158       Cu163   2.013       .  S
O158        C168   1.278       .  A
O159       Cu164   2.009       .  S
O159        C168   1.278       .  A
O160       Cu164   2.009       .  S
O160        C167   1.276       .  A
O161       Cu164   2.014       .  S
O161        C166   1.277       .  A
O162       Cu164   2.014       .  S
O162        C165   1.278       .  A
Cu163      Cu164   2.378       .  S
C166        C260   1.437       .  S
C167        C274   1.436       .  S
O169       Cu177   2.014   1_556  S
O169        C179   1.277       .  A
O170       Cu177   2.014       .  S
O170        C180   1.277       .  A
O171       Cu177   2.013   1_556  S
O171        C181   1.276       .  A
O172       Cu177   2.012       .  S
O172        C182   1.276       .  A
O173       Cu178   2.010   1_554  S
O173        C182   1.276       .  A
O174       Cu178   2.010       .  S
O174        C181   1.277       .  A
O175       Cu178   2.011       .  S
O175        C180   1.277   1_556  A
O176       Cu178   2.010       .  S
O176        C179   1.276       .  A
Cu177      Cu178   2.379   1_554  S
C179        C568   1.436   1_455  S
C180        C540   1.437       .  S
C181        C318   1.436       .  S
C182        C276   1.436       .  S
O183       Cu191   2.011       .  S
O183        C193   1.277       .  A
O184       Cu191   2.010   1_556  S
O184        C194   1.277       .  A
O185       Cu191   2.009   1_556  S
O185        C195   1.276       .  A
O186       Cu191   2.010       .  S
O186        C196   1.276       .  A
O187       Cu192   2.014       .  S
O187        C196   1.277       .  A
O188       Cu192   2.013   1_556  S
O188        C195   1.276       .  A
O189       Cu192   2.013   1_556  S
O189        C194   1.276       .  A
O190       Cu192   2.013       .  S
O190        C193   1.277       .  A
Cu191      Cu192   2.379       .  S
C193        C528   1.437   1_455  S
C194        C498   1.437       .  S
C195        C358   1.436       .  S
C196        C302   1.437       .  S
O197       Cu205   2.014       .  S
O197        C207   1.277       .  A
O198       Cu205   2.014       .  S
O198        C208   1.277       .  A
O199       Cu205   2.013       .  S
O199        C209   1.276       .  A
O200       Cu205   2.013       .  S
O200        C210   1.277       .  A
O201       Cu206   2.012       .  S
O201        C210   1.277       .  A
O202       Cu206   2.012       .  S
O202        C209   1.277       .  A
O203       Cu206   2.010       .  S
O203        C208   1.276       .  A
O204       Cu206   2.010       .  S
O204        C207   1.276       .  A
Cu205      Cu206   2.379       .  S
C207        C402   1.437       .  S
C208        C374   1.437   1_455  S
C209        C290   1.437       .  S
C210        C262   1.437   1_565  S
O211       Cu219   2.010       .  S
O211        C221   1.276       .  A
O212       Cu219   2.012       .  S
O212        C222   1.277       .  A
O213       Cu219   2.010       .  S
O213        C223   1.276       .  A
O214       Cu219   2.008       .  S
O214        C224   1.276       .  A
O215       Cu220   2.014       .  S
O215        C224   1.277       .  A
O216       Cu220   2.014       .  S
O216        C223   1.277       .  A
O217       Cu220   2.015       .  S
O217        C222   1.277       .  A
O218       Cu220   2.014       .  S
O218        C221   1.276       .  A
Cu219      Cu220   2.379       .  S
C221        C444   1.437       .  S
C222        C458   1.438   1_455  S
C223        C346   1.437       .  S
C224        C330   1.436   1_565  S
O225       Cu233   2.010       .  S
O225        C235   1.277       .  A
O226       Cu233   2.011   1_554  S
O226        C236   1.277       .  A
O227       Cu233   2.010       .  S
O227        C237   1.277       .  A
O228       Cu233   2.010       .  S
O228        C238   1.277   1_556  A
O229       Cu234   2.010       .  S
O229        C238   1.276       .  A
O230       Cu234   2.011       .  S
O230        C237   1.276   1_554  A
O231       Cu234   2.013       .  S
O231        C236   1.277       .  A
O232       Cu234   2.013   1_556  S
O232        C235   1.277       .  A
Cu233      Cu234   2.379   1_556  S
C235        C472   1.436       .  S
C236        C388   1.437       .  S
C237        C512   1.436       .  S
C238        C584   1.435   1_565  S
O239       Cu247   2.010   1_554  S
O239        C249   1.277       .  A
O240       Cu247   2.010       .  S
O240        C250   1.277       .  A
O241       Cu247   2.010       .  S
O241        C251   1.276       .  A
O242       Cu247   2.009   1_554  S
O242        C252   1.276       .  A
O243       Cu248   2.012       .  S
O243        C252   1.277       .  A
O244       Cu248   2.014   1_556  S
O244        C251   1.277       .  A
O245       Cu248   2.011       .  S
O245        C250   1.277   1_554  A
O246       Cu248   2.012       .  S
O246        C249   1.277       .  A
Cu247      Cu248   2.380   1_556  S
C249        C484   1.436       .  S
C250        C556   1.436   1_565  S
C251        C430   1.437       .  S
C252        C414   1.436       .  S
C253        C261   1.442       .  S
C253        C254   1.402       .  A
C253        C258   1.401       .  A
C254        C255   1.400       .  A
C254        H263   1.083       .  S
C255        C256   1.401       .  A
C255        H264   1.083       .  S
C256        C259   1.441       .  S
C256        C257   1.402       .  A
C257        C258   1.400       .  A
C257        H265   1.083       .  S
C258        H266   1.083       .  S
C259        C260   1.207       .  T
C261        C262   1.207       .  T
C267        C275   1.441       .  S
C267        C268   1.402       .  A
C267        C272   1.401       .  A
C268        C269   1.400       .  A
C268        H277   1.083       .  S
C269        C270   1.402       .  A
C269        H278   1.084       .  S
C270        C273   1.441       .  S
C270        C271   1.401       .  A
C271        C272   1.399       .  A
C271        H279   1.083       .  S
C272        H280   1.084       .  S
C273        C274   1.206       .  T
C275        C276   1.206       .  T
C281        C289   1.442       .  S
C281        C282   1.402       .  A
C281        C286   1.401       .  A
C282        C283   1.401       .  A
C282        H291   1.084       .  S
C283        C284   1.403       .  A
C283        H292   1.083       .  S
C284        C287   1.442       .  S
C284        C285   1.400       .  A
C285        C286   1.398       .  A
C285        H293   1.084       .  S
C286        H294   1.083       .  S
C287        C288   1.207       .  T
C289        C290   1.207       .  T
C295        C303   1.442       .  S
C295        C296   1.401       .  A
C295        C300   1.403       .  A
C296        C297   1.399       .  A
C296        H305   1.084       .  S
C297        C298   1.401       .  A
C297        H306   1.083       .  S
C298        C301   1.442       .  S
C298        C299   1.402       .  A
C299        C300   1.400       .  A
C299        H307   1.083       .  S
C300        H308   1.083       .  S
C301        C302   1.207       .  T
C303        C304   1.207       .  T
C309        C317   1.441       .  S
C309        C310   1.401       .  A
C309        C314   1.402       .  A
C310        C311   1.398       .  A
C310        H319   1.084       .  S
C311        C312   1.401       .  A
C311        H320   1.083       .  S
C312        C315   1.441       .  S
C312        C313   1.403       .  A
C313        C314   1.401       .  A
C313        H321   1.084       .  S
C314        H322   1.083       .  S
C315        C316   1.207       .  T
C317        C318   1.207       .  T
C323        C331   1.442       .  S
C323        C324   1.403       .  A
C323        C328   1.401       .  A
C324        C325   1.400       .  A
C324        H333   1.084       .  S
C325        C326   1.402       .  A
C325        H334   1.083       .  S
C326        C329   1.441       .  S
C326        C327   1.401       .  A
C327        C328   1.399       .  A
C327        H335   1.084       .  S
C328        H336   1.083       .  S
C329        C330   1.207       .  T
C331        C332   1.207       .  T
C337        C345   1.441       .  S
C337        C338   1.402       .  A
C337        C342   1.402       .  A
C338        C339   1.399       .  A
C338        H347   1.083       .  S
C339        C340   1.401       .  A
C339        H348   1.083       .  S
C340        C343   1.441       .  S
C340        C341   1.402       .  A
C341        C342   1.400       .  A
C341        H349   1.084       .  S
C342        H350   1.083       .  S
C343        C344   1.207       .  T
C345        C346   1.207       .  T
C351        C359   1.441       .  S
C351        C352   1.401       .  A
C351        C356   1.402       .  A
C352        C353   1.399       .  A
C352        H361   1.083       .  S
C353        C354   1.401       .  A
C353        H362   1.083       .  S
C354        C357   1.441       .  S
C354        C355   1.401       .  A
C355        C356   1.400       .  A
C355        H363   1.083       .  S
C356        H364   1.083       .  S
C357        C358   1.206       .  T
C359        C360   1.206       .  T
C365        C373   1.441       .  S
C365        C366   1.402       .  A
C365        C370   1.402       .  A
C366        C367   1.400       .  A
C366        H375   1.083       .  S
C367        C368   1.402       .  A
C367        H376   1.084       .  S
C368        C371   1.441       .  S
C368        C369   1.401       .  A
C369        C370   1.399       .  A
C369        H377   1.083       .  S
C370        H378   1.083       .  S
C371        C372   1.207       .  T
C373        C374   1.207       .  T
C379        C387   1.442       .  S
C379        C380   1.402       .  A
C379        C384   1.402       .  A
C380        C381   1.400       .  A
C380        H389   1.084       .  S
C381        C382   1.402       .  A
C381        H390   1.083       .  S
C382        C385   1.442       .  S
C382        C383   1.402       .  A
C383        C384   1.400       .  A
C383        H391   1.084       .  S
C384        H392   1.083       .  S
C385        C386   1.207       .  T
C387        C388   1.207       .  T
C393        C401   1.442       .  S
C393        C394   1.402       .  A
C393        C398   1.402       .  A
C394        C395   1.400       .  A
C394        H403   1.083       .  S
C395        C396   1.402       .  A
C395        H404   1.083       .  S
C396        C399   1.442       .  S
C396        C397   1.401       .  A
C397        C398   1.399       .  A
C397        H405   1.083       .  S
C398        H406   1.084       .  S
C399        C400   1.207       .  T
C401        C402   1.207       .  T
C407        C415   1.441       .  S
C407        C408   1.401       .  A
C407        C412   1.402       .  A
C408        C409   1.399       .  A
C408        H417   1.084       .  S
C409        C410   1.402       .  A
C409        H418   1.083       .  S
C410        C413   1.440       .  S
C410        C411   1.402       .  A
C411        C412   1.399       .  A
C411        H419   1.084       .  S
C412        H420   1.083       .  S
C413        C414   1.206       .  T
C415        C416   1.206       .  T
C421        C429   1.441       .  S
C421        C422   1.402       .  A
C421        C426   1.401       .  A
C422        C423   1.400       .  A
C422        H431   1.083       .  S
C423        C424   1.402       .  A
C423        H432   1.084       .  S
C424        C427   1.442       .  S
C424        C425   1.401       .  A
C425        C426   1.399       .  A
C425        H433   1.083       .  S
C426        H434   1.084       .  S
C427        C428   1.207       .  T
C429        C430   1.207       .  T
C435        C443   1.441       .  S
C435        C436   1.402       .  A
C435        C440   1.401       .  A
C436        C437   1.399       .  A
C436        H445   1.084       .  S
C437        C438   1.401       .  A
C437        H446   1.083       .  S
C438        C441   1.442       .  S
C438        C439   1.402       .  A
C439        C440   1.400       .  A
C439        H447   1.084       .  S
C440        H448   1.083       .  S
C441        C442   1.207       .  T
C443        C444   1.207       .  T
C449        C457   1.443       .  S
C449        C450   1.402       .  A
C449        C454   1.402       .  A
C450        C451   1.401       .  A
C450        H459   1.083       .  S
C451        C452   1.402       .  A
C451        H460   1.083       .  S
C452        C455   1.443       .  S
C452        C453   1.402       .  A
C453        C454   1.400       .  A
C453        H461   1.083       .  S
C454        H462   1.083       .  S
C455        C456   1.208       .  T
C457        C458   1.208       .  T
C463        C471   1.441       .  S
C463        C464   1.401       .  A
C463        C468   1.402       .  A
C464        C465   1.398       .  A
C464        H473   1.084       .  S
C465        C466   1.401       .  A
C465        H474   1.083       .  S
C466        C469   1.441       .  S
C466        C467   1.402       .  A
C467        C468   1.400       .  A
C467        H475   1.084       .  S
C468        H476   1.083       .  S
C469        C470   1.207       .  T
C471        C472   1.207       .  T
C477        C485   1.441       .  S
C477        C478   1.401   1_554  A
C477        C482   1.402       .  A
C478        C479   1.398       .  A
C478        H487   1.083       .  S
C479        C480   1.401   1_556  A
C479        H488   1.083       .  S
C480        C483   1.441       .  S
C480        C481   1.402       .  A
C481        C482   1.400       .  A
C481        H489   1.083       .  S
C482        H490   1.083       .  S
C483        C484   1.206       .  T
C485        C486   1.207       .  T
C491        C499   1.441   1_556  S
C491        C492   1.401   1_556  A
C491        C496   1.403       .  A
C492        C493   1.398       .  A
C492        H501   1.083       .  S
C493        C494   1.401   1_554  A
C493        H502   1.083       .  S
C494        C497   1.441       .  S
C494        C495   1.402       .  A
C495        C496   1.401       .  A
C495        H503   1.083       .  S
C496        H504   1.083       .  S
C497        C498   1.207       .  T
C499        C500   1.207       .  T
C505        C513   1.441       .  S
C505        C506   1.401   1_556  A
C505        C510   1.403       .  A
C506        C507   1.398       .  A
C506        H515   1.083       .  S
C507        C508   1.401   1_554  A
C507        H516   1.083       .  S
C508        C511   1.440       .  S
C508        C509   1.402       .  A
C509        C510   1.400       .  A
C509        H517   1.083       .  S
C510        H518   1.084       .  S
C511        C512   1.206       .  T
C513        C514   1.207       .  T
C519        C527   1.442       .  S
C519        C520   1.402       .  A
C519        C524   1.401   1_554  A
C520        C521   1.400       .  A
C520        H529   1.083       .  S
C521        C522   1.402       .  A
C521        H530   1.084       .  S
C522        C525   1.442   1_554  S
C522        C523   1.401   1_554  A
C523        C524   1.399       .  A
C523        H531   1.083       .  S
C524        H532   1.084       .  S
C525        C526   1.207       .  T
C527        C528   1.207       .  T
C533        C541   1.442       .  S
C533        C534   1.401   1_554  A
C533        C538   1.403       .  A
C534        C535   1.399       .  A
C534        H543   1.083       .  S
C535        C536   1.401   1_556  A
C535        H544   1.084       .  S
C536        C539   1.442       .  S
C536        C537   1.402       .  A
C537        C538   1.401       .  A
C537        H545   1.083       .  S
C538        H546   1.084       .  S
C539        C540   1.207       .  T
C541        C542   1.207       .  T
C547        C555   1.440       .  S
C547        C548   1.401   1_556  A
C547        C552   1.402       .  A
C548        C549   1.399       .  A
C548        H557   1.084       .  S
C549        C550   1.401       .  A
C549        H558   1.083       .  S
C550        C553   1.441   1_554  S
C550        C551   1.402   1_554  A
C551        C552   1.400       .  A
C551        H559   1.084       .  S
C552        H560   1.083       .  S
C553        C554   1.207       .  T
C555        C556   1.206       .  T
C561        C569   1.441   1_554  S
C561        C562   1.402   1_554  A
C561        C566   1.401       .  A
C562        C563   1.400       .  A
C562        H571   1.084       .  S
C563        C564   1.402       .  A
C563        H572   1.083       .  S
C564        C567   1.441       .  S
C564        C565   1.402   1_556  A
C565        C566   1.399       .  A
C565        H573   1.083       .  S
C566        H574   1.083       .  S
C567        C568   1.207       .  T
C569        C570   1.207       .  T
C575        C583   1.440   1_556  S
C575        C576   1.402   1_556  A
C575        C580   1.401       .  A
C576        C577   1.400       .  A
C576        H585   1.084       .  S
C577        C578   1.402   1_554  A
C577        H586   1.083       .  S
C578        C581   1.440       .  S
C578        C579   1.400       .  A
C579        C580   1.398       .  A
C579        H587   1.083       .  S
C580        H588   1.083       .  S
C581        C582   1.206       .  T
C583        C584   1.206       .  T
