geometry optimzed in LAMMPS
_audit_creation_date              2020-11-30 
_audit_creation_method            'lammps2cif' 
_symmetry_space_group_name_H-M    'P1' 
_symmetry_Int_Tables_number       1 
_symmetry_cell_setting            triclinic 
loop_ 
_symmetry_equiv_pos_as_xyz 
  x,y,z 
_cell_length_a                    50.40615891843473 
_cell_length_b                    25.973521367371884 
_cell_length_c                    23.758044632739 
_cell_angle_alpha                 91.01381383640675 
_cell_angle_beta                  89.83699509942232 
_cell_angle_gamma                 92.25235064957555 
loop_ 
_atom_site_label 
_atom_site_type_symbol 
_atom_site_fract_x 
_atom_site_fract_y 
_atom_site_fract_z 
_atom_site_charge 
O1          O  0.62307833  0.13584534  0.48569518    -0.81130
O2          O  0.61168969  0.36506558  0.49054766    -0.65820
O3          O  0.60828597  0.22623788  0.43725786    -1.12420
C4          C  0.69573123  0.25611266  0.37881593     1.05760
O5          O  0.63367273  0.39280908  0.41504094    -0.79030
O6          O  0.63677967  0.31916329  0.33452695    -0.66610
Ni7        Ni  0.59158224  0.17423847  0.48147520     1.34870
C8          C  0.63472537  0.27375068  0.31420041     0.84500
O9          O  0.57101483  0.29523403  0.47877445    -0.79560
O10         O  0.55939726  0.21053867  0.47887054    -0.89840
C11         C  0.62126674  0.40105052  0.46062952     0.84070
O12         O  0.59915104  0.19998055  0.55536079    -0.68040
O13         O  0.68709385  0.30027024  0.36830773    -0.87330
C14         C  0.61020361  0.24153157  0.57338997     0.84900
C15         C  0.55357366  0.25803501  0.47839884     1.06470
H16         H  0.65663146  0.29707859  0.48111908     0.38270
O17         O  0.64617797  0.29328626  0.44715535    -1.09990
O18         O  0.63924841  0.23427904  0.34342424    -0.66640
Ni19       Ni  0.64544364  0.22251971  0.42279801     1.26350
O20         O  0.61632233  0.27917853  0.54189379    -0.66870
O21         O  0.68286148  0.22266917  0.40793570    -0.79160
C22         C  0.63458781  0.11894778  0.44211236     0.84280
O23         O  0.64286547  0.14985115  0.40443931    -0.66340
Ni24       Ni  0.65919897  0.34294473  0.39445526     1.27450
Ni25       Ni  0.60896984  0.29528569  0.46481191     1.26060
H26         H  0.59898049  0.22550072  0.40173754     0.38830
O27         O  0.62264772  0.13289581  0.98829755    -0.81130
O28         O  0.60984736  0.36144599  0.98332681    -0.65820
O29         O  0.60573033  0.21847168  0.94083925    -1.12420
C30         C  0.69555079  0.25237844  0.88247795     1.05760
O31         O  0.62491782  0.37040460  0.89820317    -0.79030
O32         O  0.64393327  0.30562812  0.82401085    -0.66610
Ni33       Ni  0.59039585  0.16814165  0.98868301     1.34870
C34         C  0.63542879  0.26097487  0.80941901     0.84500
O35         O  0.56900038  0.28765394  0.98203794    -0.79560
O36         O  0.55769795  0.20285053  0.99022907    -0.89840
C37         C  0.61780489  0.39086764  0.94404469     0.84070
O38         O  0.59976677  0.19727492  0.05999821    -0.68040
O39         O  0.68934407  0.29961761  0.88306771    -0.87330
C40         C  0.61022997  0.23997120  0.07624205     0.84900
C41         C  0.55185292  0.25022313  0.98870667     1.06470
H42         H  0.65441565  0.28835294  0.97743467     0.38270
O43         O  0.64368010  0.28490857  0.94384385    -1.09990
O44         O  0.63341629  0.22357514  0.84305984    -0.66640
Ni45       Ni  0.64274835  0.21438606  0.92072082     1.26350
O46         O  0.61538084  0.27654804  0.04233528    -0.66870
O47         O  0.67976879  0.21533971  0.89844660    -0.79160
C48         C  0.63012552  0.11261509  0.94246544     0.84280
O49         O  0.63968461  0.14154322  0.90424085    -0.66340
Ni50       Ni  0.65696932  0.33469450  0.89271325     1.27450
Ni51       Ni  0.60668315  0.28854337  0.96448991     1.26060
H52         H  0.59535076  0.21621972  0.90669489     0.38830
O53         O  0.86244981  0.08437718  0.25930633    -0.81130
O54         O  0.85435489  0.31696975  0.25290643    -0.65820
O55         O  0.84654859  0.17343462  0.21586205    -1.12420
C56         C  0.93946444  0.19740285  0.17939053     1.05760
O57         O  0.87267149  0.32076627  0.16981872    -0.79030
O58         O  0.89722156  0.25525648  0.10263431    -0.66610
Ni59       Ni  0.83210766  0.12508366  0.26696774     1.34870
C60         C  0.88326944  0.21656403  0.08590441     0.84500
O61         O  0.81216803  0.24756430  0.25701879    -0.79560
O62         O  0.80146215  0.16480551  0.27919187    -0.89840
C63         C  0.86459570  0.34376712  0.21355467     0.84070
O64         O  0.84713981  0.15229144  0.33440074    -0.68040
O65         O  0.93561276  0.24575569  0.18059614    -0.87330
C66         C  0.85502005  0.19699256  0.35016018     0.84900
C67         C  0.79618217  0.21233757  0.27618522     1.06470
H68         H  0.89606099  0.23541347  0.25635508     0.38270
O69         O  0.88632182  0.23518013  0.22137237    -1.09990
O70         O  0.87487270  0.18169238  0.11916125    -0.66640
Ni71       Ni  0.88325483  0.16596702  0.19580153     1.26350
O72         O  0.85696914  0.23483620  0.31696532    -0.66870
O73         O  0.92085455  0.16218987  0.17851039    -0.79160
C74         C  0.86912212  0.06480317  0.21257190     0.84280
O75         O  0.87785889  0.09451245  0.17439839    -0.66340
Ni76       Ni  0.90416232  0.28365485  0.17550724     1.27450
Ni77       Ni  0.84938974  0.24403530  0.23817859     1.26060
H78         H  0.83578507  0.17076740  0.18226267     0.38830
O79         O  0.86371925  0.08214518  0.75176384    -0.81130
O80         O  0.85448631  0.31574053  0.75638202    -0.65820
O81         O  0.84770331  0.17325595  0.71390046    -1.12420
C82         C  0.94040385  0.20006787  0.67745605     1.05760
O83         O  0.87371915  0.32683152  0.67357902    -0.79030
O84         O  0.89711271  0.26087888  0.60350570    -0.66610
Ni85       Ni  0.83338701  0.12244134  0.76247071     1.34870
C86         C  0.88384807  0.22161828  0.58556466     0.84500
O87         O  0.81300623  0.24477309  0.76010901    -0.79560
O88         O  0.80259539  0.16113738  0.77702058    -0.89840
C89         C  0.86243415  0.34519976  0.71690009     0.84070
O90         O  0.84872878  0.14736260  0.83062906    -0.68040
O91         O  0.93621267  0.24826129  0.68058510    -0.87330
C92         C  0.85703359  0.19115608  0.84849536     0.84900
C93         C  0.79698146  0.20866169  0.77739065     1.06470
H94         H  0.89689736  0.23543037  0.75608738     0.38270
O95         O  0.88703149  0.23613797  0.72132259    -1.09990
O96         O  0.87604280  0.18547362  0.61769368    -0.66640
Ni97       Ni  0.88446479  0.16740782  0.69328298     1.26350
O98         O  0.85838298  0.23053127  0.81725222    -0.66870
O99         O  0.92198244  0.16463088  0.67557412    -0.79160
C100        C  0.86959851  0.06535935  0.70328484     0.84280
O101        O  0.87935132  0.09695831  0.66811227    -0.66340
Ni102      Ni  0.90469486  0.28678363  0.67759009     1.27450
Ni103      Ni  0.85017487  0.24302282  0.73941368     1.26060
H104        H  0.83695735  0.17177482  0.68024499     0.38830
O105        O  0.12090273  0.32875477  0.17007303    -0.81130
O106        O  0.11030386  0.09897433  0.17124539    -0.65820
O107        O  0.10548370  0.23910195  0.21972662    -1.12420
C108        C  0.19511982  0.21826063  0.27451120     1.05760
O109        O  0.12502221  0.08789104  0.25594225    -0.79030
O110        O  0.14285344  0.15656459  0.33319634    -0.66610
Ni111      Ni  0.08888519  0.28755729  0.17535141     1.34870
C112        C  0.13477057  0.20023513  0.34852644     0.84500
O113        O  0.06905814  0.16439191  0.17588924    -0.79560
O114        O  0.05658715  0.24719075  0.18003478    -0.89840
C115        C  0.11915651  0.06913638  0.20787416     0.84070
O116        O  0.09551225  0.26023375  0.10194929    -0.68040
O117        O  0.18857198  0.17033254  0.27505707    -0.87330
C118        C  0.10818369  0.22193263  0.08456333     0.84900
C119        C  0.05140844  0.19865713  0.17771257     1.06470
H120        H  0.15428691  0.17749312  0.18087592     0.38270
O121        O  0.14345885  0.17894974  0.21446260    -1.09990
O122        O  0.13335416  0.23806681  0.31566079    -0.66640
Ni123      Ni  0.14243292  0.24928574  0.23802663     1.26350
O124        O  0.11579336  0.18708716  0.11712637    -0.66870
O125        O  0.17963842  0.25375131  0.25938739    -0.79160
C126        C  0.13140911  0.35009378  0.21341994     0.84280
O127        O  0.13944004  0.32237433  0.25328560    -0.66340
Ni128      Ni  0.15654970  0.13000500  0.26435532     1.27450
Ni129      Ni  0.10664994  0.16998645  0.19360338     1.26060
H130        H  0.09546707  0.23821124  0.25441532     0.38830
O131        O  0.11970000  0.33537895  0.66984537    -0.81130
O132        O  0.11444509  0.10773350  0.67544697    -0.65820
O133        O  0.10491793  0.24731620  0.72036675    -1.12420
C134        C  0.19591415  0.24353034  0.77244835     1.05760
O135        O  0.13409142  0.09610471  0.75598766    -0.79030
O136        O  0.14769779  0.16972983  0.83232203    -0.66610
Ni137      Ni  0.08832943  0.29264648  0.67155922     1.34870
C138        C  0.13737065  0.21107042  0.84900849     0.84500
O139        O  0.07076888  0.16793839  0.68061094    -0.79560
O140        O  0.05690776  0.24965519  0.67305130    -0.89840
C141        C  0.12587786  0.07820300  0.70887034     0.84070
O142        O  0.09753580  0.26552614  0.59962900    -0.68040
O143        O  0.19204794  0.19470268  0.77276373    -0.87330
C144        C  0.11010815  0.22639504  0.58474872     0.84900
C145        C  0.05253801  0.20102100  0.67660852     1.06470
H146        H  0.15564115  0.19394491  0.68083051     0.38270
O147        O  0.14537242  0.19303855  0.71508059    -1.09990
O148        O  0.13328822  0.24874708  0.81693824    -0.66640
Ni149      Ni  0.14140762  0.26299023  0.73908328     1.26350
O150        O  0.11661260  0.19233840  0.61911892    -0.66870
O151        O  0.17827500  0.27521179  0.75908022    -0.79160
C152        C  0.12594463  0.35981730  0.71465881     0.84280
O153        O  0.13512649  0.33466558  0.75527124    -0.66340
Ni154      Ni  0.16245090  0.14706594  0.76290407     1.27450
Ni155      Ni  0.10855499  0.17815567  0.69655466     1.26060
H156        H  0.09454654  0.24687349  0.75466213     0.38830
O157        O  0.36626199  0.38542061  0.39909051    -0.81130
O158        O  0.35023470  0.14843775  0.40651603    -0.65820
O159        O  0.34835338  0.29402068  0.44319696    -1.12420
C160        C  0.43960160  0.26509938  0.48018279     1.05760
O161        O  0.36539129  0.14355644  0.49224509    -0.79030
O162        O  0.39060955  0.21305979  0.56074750    -0.66610
Ni163      Ni  0.33507694  0.34228773  0.39187980     1.34870
C164        C  0.38248559  0.25674645  0.57544561     0.84500
O165        O  0.31100074  0.21901986  0.39921810    -0.79560
O166        O  0.30296860  0.30222600  0.38158733    -0.89840
C167        C  0.35755575  0.12095043  0.44727419     0.84070
O168        O  0.34933157  0.31404009  0.32425652    -0.68040
O169        O  0.43156960  0.21859303  0.48843527    -0.87330
C170        C  0.35686926  0.26969319  0.30989372     0.84900
C171        C  0.29595531  0.25465636  0.38303294     1.06470
H172        H  0.39527207  0.22730655  0.40631880     0.38270
O173        O  0.38489527  0.23023246  0.44041490    -1.09990
O174        O  0.37799285  0.29182562  0.54054261    -0.66640
Ni175      Ni  0.38579390  0.30136219  0.46163356     1.26350
O176        O  0.35751217  0.23199138  0.34315211    -0.66870
O177        O  0.42408182  0.30308305  0.47526921    -0.79160
C178        C  0.37280687  0.40385230  0.44680546     0.84280
O179        O  0.38398897  0.37439081  0.48088246    -0.66340
Ni180      Ni  0.39837696  0.18187637  0.49019191     1.27450
Ni181      Ni  0.34806453  0.22235376  0.42105378     1.26060
H182        H  0.33805405  0.29684863  0.47740674     0.38830
O183        O  0.36259241  0.38064353  0.00076152    -0.81130
O184        O  0.38648429  0.15859876  0.97765676    -0.65820
O185        O  0.38268403  0.30009545  0.94103382    -1.12420
C186        C  0.29944503  0.25714359  0.86766398     1.05760
O187        O  0.36879818  0.13123437  0.89639801    -0.79030
O188        O  0.36466502  0.21261173  0.82777948    -0.66610
Ni189      Ni  0.39664408  0.35180861  0.99090381     1.34870
C190        C  0.36359303  0.25909295  0.81269069     0.84500
O191        O  0.42283464  0.23859124  0.98109023    -0.79560
O192        O  0.43109097  0.32469751  0.98198937    -0.89840
C193        C  0.38033334  0.12260146  0.94262089     0.84070
O194        O  0.39230979  0.31740573  0.06103382    -0.68040
O195        O  0.31167711  0.21678156  0.85362826    -0.87330
C196        C  0.38100855  0.27476659  0.07402675     0.84900
C197        C  0.43875005  0.27844922  0.98240561     1.06470
H198        H  0.33776658  0.21541353  0.97022901     0.38270
O199        O  0.34888564  0.22489215  0.93855219    -1.09990
O200        O  0.35403505  0.29423989  0.84406053    -0.66640
Ni201      Ni  0.34545055  0.29704334  0.92412717     1.26350
O202        O  0.37441501  0.24019938  0.03768323    -0.66870
O203        O  0.30848971  0.28968060  0.90447062    -0.79160
C204        C  0.35108984  0.40006143  0.95922565     0.84280
O205        O  0.34360908  0.37110325  0.91782302    -0.66340
Ni206      Ni  0.34112610  0.17779982  0.87816249     1.27450
Ni207      Ni  0.38551671  0.23025454  0.96075048     1.26060
H208        H  0.39243310  0.30466253  0.90629981     0.38830
O209        O  0.63522423  0.88670655  0.99986337    -0.81130
O210        O  0.64323865  0.64153053  0.99589239    -0.65820
O211        O  0.64666666  0.78662924  0.96337393    -1.12420
C212        C  0.55420105  0.74965911  0.92827216     1.05760
O213        O  0.62573713  0.63576319  0.91242403    -0.79030
O214        O  0.59973365  0.69871884  0.84705477    -0.66610
Ni215      Ni  0.65963339  0.83494945  0.01903907     1.34870
C216        C  0.61135846  0.74061798  0.83303518     0.84500
O217        O  0.68347082  0.71504434  0.99739022    -0.79560
O218        O  0.68685288  0.79088213  0.04363448    -0.89840
C219        C  0.63403518  0.61348903  0.95546021     0.84070
O220        O  0.63597316  0.81005696  0.07560872    -0.68040
O221        O  0.56018695  0.70235749  0.92477895    -0.87330
C222        C  0.63451563  0.76425736  0.09336296     0.84900
C223        C  0.69603264  0.74762425  0.02931794     1.06470
H224        H  0.59925459  0.71675159  0.00373523     0.38270
O225        O  0.60880273  0.71915703  0.96849191    -1.09990
O226        O  0.61762830  0.77553378  0.86888616    -0.66640
Ni227      Ni  0.60934616  0.78859736  0.94633172     1.26350
O228        O  0.63978215  0.72531704  0.06245783    -0.66870
O229        O  0.57139045  0.78740718  0.93129574    -0.79160
C230        C  0.62234560  0.89479417  0.95530170     0.84280
O231        O  0.61170915  0.85891734  0.92545815    -0.66340
Ni232      Ni  0.59304433  0.66908608  0.91884288     1.27450
Ni233      Ni  0.64605551  0.71508704  0.98261122     1.26060
H234        H  0.65717607  0.79137532  0.92963801     0.38830
O235        O  0.63063675  0.88211930  0.50669021    -0.81130
O236        O  0.63906925  0.64804749  0.50188995    -0.65820
O237        O  0.64591913  0.79042996  0.46183093    -1.12420
C238        C  0.55396912  0.75944473  0.41893163     1.05760
O239        O  0.62351140  0.63757752  0.41725095    -0.79030
O240        O  0.60402996  0.70164311  0.34485291    -0.66610
Ni241      Ni  0.66062252  0.84024453  0.51417313     1.34870
C242        C  0.61277268  0.74551626  0.33021659     0.84500
O243        O  0.68040008  0.71787698  0.50607351    -0.79560
O244        O  0.69156625  0.80108282  0.52588051    -0.89840
C245        C  0.62922841  0.61836228  0.46380774     0.84070
O246        O  0.64521817  0.81421240  0.58177796    -0.68040
O247        O  0.56064290  0.71287849  0.41073700    -0.87330
C248        C  0.63613711  0.77006625  0.59589686     0.84900
C249        C  0.69668789  0.75332670  0.52437647     1.06470
H250        H  0.59633922  0.72403156  0.49847382     0.38270
O251        O  0.60698023  0.72600741  0.46462353    -1.09990
O252        O  0.61604388  0.78359166  0.36417004    -0.66640
Ni253      Ni  0.60871619  0.79610742  0.44298604     1.26350
O254        O  0.63439016  0.73221083  0.56159341    -0.66870
O255        O  0.57070215  0.79729086  0.42822056    -0.79160
C256        C  0.62383870  0.89917105  0.45953732     0.84280
O257        O  0.61303004  0.86788142  0.42411172    -0.66340
Ni258      Ni  0.59222932  0.67551258  0.41449720     1.27450
Ni259      Ni  0.64365213  0.72004278  0.48438691     1.26060
H260        H  0.65644258  0.79241313  0.42781477     0.38830
O261        O  0.87132783  0.82146431  0.24445558    -0.81130
O262        O  0.87955566  0.59711553  0.23329553    -0.65820
O263        O  0.88582089  0.73580178  0.18782502    -1.12420
C264        C  0.79830274  0.70855291  0.12652797     1.05760
O265        O  0.86271439  0.57436713  0.15019271    -0.79030
O266        O  0.85770519  0.65001488  0.07584979    -0.66610
Ni267      Ni  0.90316959  0.78526364  0.23578926     1.34870
C268        C  0.85957626  0.69649466  0.06054582     0.84500
O269        O  0.92114920  0.66571684  0.23049619    -0.79560
O270        O  0.93535925  0.74929500  0.22960234    -0.89840
C271        C  0.87197389  0.56290172  0.19782362     0.84070
O272        O  0.89683539  0.75615618  0.30787955    -0.68040
O273        O  0.80708751  0.66458962  0.11305800    -0.87330
C274        C  0.88309054  0.71698262  0.32289431     0.84900
C275        C  0.93951012  0.70123281  0.23227200     1.06470
H276        H  0.83602149  0.66486785  0.22344612     0.38270
O277        O  0.84729026  0.67004109  0.19088353    -1.09990
O278        O  0.85499227  0.73416215  0.09356677    -0.66640
Ni279      Ni  0.84856062  0.74140374  0.17335629     1.26350
O280        O  0.87416256  0.68317753  0.28794153    -0.66870
O281        O  0.81121053  0.74187217  0.15723700    -0.79160
C282        C  0.86069154  0.84255700  0.20307955     0.84280
O283        O  0.85164015  0.81468182  0.16246046    -0.66340
Ni284      Ni  0.83574581  0.62223009  0.13395134     1.27450
Ni285      Ni  0.88379491  0.66689675  0.21167337     1.26060
H286        H  0.89534199  0.73646361  0.15247284     0.38830
O287        O  0.87005640  0.83116354  0.73292606    -0.81130
O288        O  0.88028397  0.59754192  0.73328457    -0.65820
O289        O  0.88672345  0.73862445  0.68949285    -1.12420
C290        C  0.79703285  0.70795132  0.62862875     1.05760
O291        O  0.86367440  0.58256661  0.64989097    -0.79030
O292        O  0.84630413  0.64698168  0.57299418    -0.66610
Ni293      Ni  0.90090280  0.79096458  0.73821099     1.34870
C294        C  0.85671114  0.68969891  0.55773465     0.84500
O295        O  0.92204285  0.66858234  0.73193127    -0.79560
O296        O  0.93243325  0.75336043  0.74634997    -0.89840
C297        C  0.87036314  0.56570775  0.69723984     0.84070
O298        O  0.88807404  0.76642734  0.80822551    -0.68040
O299        O  0.80142483  0.66003013  0.63237876    -0.87330
C300        C  0.87973031  0.72249115  0.82397935     0.84900
C301        C  0.93850293  0.70604344  0.74426254     1.06470
H302        H  0.83710973  0.67365949  0.72618457     0.38270
O303        O  0.84783626  0.67399700  0.69240259    -1.09990
O304        O  0.86090623  0.72777533  0.59111329    -0.66640
Ni305      Ni  0.85046424  0.74305835  0.66707238     1.26350
O306        O  0.87655353  0.68369151  0.79098148    -0.66870
O307        O  0.81397028  0.74390441  0.64279277    -0.79160
C308        C  0.86101551  0.84633400  0.68662272     0.84280
O309        O  0.85482920  0.81419590  0.64762804    -0.66340
Ni310      Ni  0.83290960  0.62232350  0.64292596     1.27450
Ni311      Ni  0.88468913  0.66908100  0.71321560     1.26060
H312        H  0.89781552  0.73958932  0.65625685     0.38830
O313        O  0.12276130  0.58668659  0.14814398    -0.81130
O314        O  0.13938905  0.82082284  0.15334260    -0.65820
O315        O  0.14261818  0.67825358  0.18948744    -1.12420
C316        C  0.05136497  0.70032232  0.23598246     1.05760
O317        O  0.12069832  0.83293825  0.23609108    -0.79030
O318        O  0.09811472  0.76449020  0.30606673    -0.66610
Ni319      Ni  0.15361057  0.62918542  0.13494899     1.34870
C320        C  0.10934933  0.72467110  0.32221444     0.84500
O321        O  0.17899048  0.75215554  0.14650977    -0.79560
O322        O  0.18483740  0.67008168  0.11779904    -0.89840
C323        C  0.13102220  0.85094376  0.19154843     0.84070
O324        O  0.13621609  0.65440388  0.07091281    -0.68040
O325        O  0.05677857  0.74873538  0.23498493    -0.87330
C326        C  0.13122415  0.69983307  0.05728800     0.84900
C327        C  0.19260018  0.71734914  0.12202771     1.06470
H328        H  0.09476634  0.73880682  0.15304078     0.38270
O329        O  0.10494115  0.73973316  0.18747129    -1.09990
O330        O  0.11541711  0.68842726  0.28842030    -0.66640
Ni331      Ni  0.10600321  0.67050537  0.21202913     1.26350
O332        O  0.13327471  0.73813432  0.09085935    -0.66870
O333        O  0.06865588  0.66562531  0.23126452    -0.79160
C334        C  0.11825741  0.56897537  0.19651475     0.84280
O335        O  0.10978265  0.59971243  0.23390579    -0.66340
Ni336      Ni  0.08909399  0.78967010  0.23436002     1.27450
Ni337      Ni  0.14197343  0.74864125  0.16853514     1.26060
H338        H  0.15392999  0.67588549  0.22204175     0.38830
O339        O  0.12208381  0.59193485  0.65152004    -0.81130
O340        O  0.13973188  0.82701882  0.64933383    -0.65820
O341        O  0.14118085  0.68603293  0.69394093    -1.12420
C342        C  0.05127057  0.71418231  0.74283027     1.05760
O343        O  0.12334035  0.84368080  0.73364575    -0.79030
O344        O  0.10394036  0.77715888  0.80887480    -0.66610
Ni345      Ni  0.15407154  0.63344110  0.64594831     1.34870
C346        C  0.11097436  0.73326817  0.82382399     0.84500
O347        O  0.17832541  0.75576336  0.64451129    -0.79560
O348        O  0.18675636  0.67139556  0.63653756    -0.89840
C349        C  0.13302465  0.85921374  0.68734259     0.84070
O350        O  0.14189794  0.65764204  0.57604913    -0.68040
O351        O  0.05856437  0.76185008  0.74744642    -0.87330
C352        C  0.13363449  0.70013341  0.55931709     0.84900
C353        C  0.19351994  0.71879237  0.63124667     1.06470
H354        H  0.09397529  0.75111300  0.65615579     0.38270
O355        O  0.10470719  0.75025839  0.68973637    -1.09990
O356        O  0.11237296  0.69489331  0.79054379    -0.66640
Ni357      Ni  0.10424980  0.68067875  0.71321933     1.26350
O358        O  0.13131294  0.73910521  0.59190806    -0.66870
O359        O  0.06700385  0.67834579  0.73026598    -0.79160
C360        C  0.11316674  0.57733126  0.69861023     0.84280
O361        O  0.10585319  0.61022620  0.73456475    -0.66340
Ni362      Ni  0.09142708  0.80138464  0.73918659     1.27450
Ni363      Ni  0.14147099  0.75523740  0.66833948     1.26060
H364        H  0.15160544  0.68590191  0.72800733     0.38830
O365        O  0.36177637  0.64154644  0.91459034    -0.81130
O366        O  0.39086497  0.87079734  0.93790839    -0.65820
O367        O  0.38346969  0.72694695  0.96938532    -1.12420
C368        C  0.29550631  0.76944483  0.02279158     1.05760
O369        O  0.37252918  0.88582109  0.01969757    -0.79030
O370        O  0.34787235  0.81833031  0.08728276    -0.66610
Ni371      Ni  0.39607102  0.67582057  0.91952396     1.34870
C372        C  0.35421195  0.77339159  0.10026859     0.84500
O373        O  0.42597027  0.79332892  0.93817728    -0.79560
O374        O  0.43086980  0.70786003  0.92361336    -0.89840
C375        C  0.38377910  0.90279534  0.97562869     0.84070
O376        O  0.38948830  0.70767064  0.84986560    -0.68040
O377        O  0.30416197  0.81626657  0.02285849    -0.87330
C378        C  0.38283174  0.75239244  0.83698875     0.84900
C379        C  0.44026235  0.75389968  0.93134242     1.06470
H380        H  0.34122380  0.80279579  0.93283360     0.38270
O381        O  0.35065241  0.79820311  0.96763008    -1.09990
O382        O  0.35531037  0.73592666  0.06509292    -0.66640
Ni383      Ni  0.34625430  0.72712103  0.98642898     1.26350
O384        O  0.38065793  0.78921852  0.87244775    -0.66870
O385        O  0.30924403  0.73137349  0.00648209    -0.79160
C386        C  0.35077686  0.62306976  0.95824221     0.84280
O387        O  0.34379574  0.65336362  0.99801362    -0.66340
Ni388      Ni  0.33866347  0.84944340  0.01881715     1.27450
Ni389      Ni  0.38817347  0.79781009  0.95168801     1.26060
H390        H  0.39295818  0.72228233  0.00404975     0.38830
O391        O  0.36304584  0.63874516  0.42327428    -0.81130
O392        O  0.38610288  0.87291444  0.42892672    -0.65820
O393        O  0.38479823  0.72900096  0.46851271    -1.12420
C394        C  0.29724397  0.76627173  0.53207896     1.05760
O395        O  0.37255154  0.88178402  0.51426922    -0.79030
O396        O  0.35014327  0.81957492  0.58975096    -0.66610
Ni397      Ni  0.39594913  0.67730059  0.41751143     1.34870
C398        C  0.35822918  0.77600557  0.60318869     0.84500
O399        O  0.42449418  0.79821090  0.42910709    -0.79560
O400        O  0.42929464  0.71340601  0.41054300    -0.89840
C401        C  0.37758158  0.90242778  0.46772357     0.84070
O402        O  0.38441623  0.70459796  0.34898276    -0.68040
O403        O  0.30509408  0.81339414  0.52901008    -0.87330
C404        C  0.37752026  0.74880814  0.33503777     0.84900
C405        C  0.43882747  0.75907948  0.41946102     1.06470
H406        H  0.33883990  0.79803678  0.43587217     0.38270
O407        O  0.34978949  0.79587343  0.46898780    -1.09990
O408        O  0.35999674  0.73838337  0.56873523    -0.66640
Ni409      Ni  0.34835160  0.72588528  0.49239522     1.26350
O410        O  0.37690860  0.78713234  0.36905730    -0.66870
O411        O  0.31176553  0.72826626  0.51815429    -0.79160
C412        C  0.35575076  0.62141052  0.47052932     0.84280
O413        O  0.34911002  0.65291880  0.50940775    -0.66340
Ni414      Ni  0.33891807  0.84740051  0.52064649     1.27450
Ni415      Ni  0.38675880  0.79961640  0.44682876     1.26060
H416        H  0.39592044  0.72641623  0.50132358     0.38830
C417        C  0.37686811  0.76103578  0.77757822    -0.00390
C418        C  0.35110124  0.74919199  0.75836166    -0.12270
C419        C  0.34491189  0.75274158  0.70128605     0.01840
C420        C  0.36475058  0.76856206  0.66260253    -0.00480
C421        C  0.39059847  0.78032574  0.68174921    -0.12210
C422        C  0.39683590  0.77623996  0.73894803     0.01730
H423        H  0.33588398  0.73646023  0.78796291     0.14710
H424        H  0.40584576  0.79265957  0.65205888     0.14710
C425        C  0.42382382  0.78705039  0.75704043     0.36360
C426        C  0.31812800  0.73935922  0.68353741     0.36270
N427        N  0.44548176  0.79552963  0.77150270    -0.43980
N428        N  0.29658223  0.72809436  0.67029141    -0.43980
C429        C  0.36008170  0.76496097  0.15993495    -0.00390
C430        C  0.34155051  0.78015386  0.20066537    -0.12270
C431        C  0.34676269  0.77549232  0.25816028     0.01840
C432        C  0.37095902  0.75559977  0.27540262    -0.00480
C433        C  0.38938703  0.74011089  0.23464628    -0.12210
C434        C  0.38423914  0.74505939  0.17724600     0.01730
H435        H  0.32288056  0.79539183  0.18743142     0.14710
H436        H  0.40813404  0.72512066  0.24782380     0.14710
C437        C  0.40471029  0.73281139  0.13723461     0.36360
C438        C  0.32659041  0.78915980  0.29837825     0.36270
N439        N  0.42130037  0.72367999  0.10529598    -0.43980
N440        N  0.31028169  0.79979552  0.33044086    -0.43980
C441        C  0.27009430  0.75580222  0.55537791    -0.00390
C442        C  0.25833114  0.70639266  0.54863405    -0.12270
C443        C  0.23378068  0.69339855  0.57315035     0.01840
C444        C  0.22016037  0.73045767  0.60602492    -0.00480
C445        C  0.23172955  0.78011693  0.61217955    -0.12210
C446        C  0.25635768  0.79308988  0.58775865     0.01730
H447        H  0.26839572  0.67742976  0.52405493     0.14710
H448        H  0.22165270  0.80897278  0.63689080     0.14710
C449        C  0.26717489  0.84458254  0.59908634     0.36360
C450        C  0.22315298  0.64170941  0.56222821     0.36270
N451        N  0.27573713  0.88585474  0.60836693    -0.43980
N452        N  0.21486921  0.60016563  0.55343812    -0.43980
C453        C  0.12448288  0.70939164  0.99855542    -0.00390
C454        C  0.13830465  0.74972801  0.97119891    -0.12270
C455        C  0.13451573  0.75784807  0.91392377     0.01840
C456        C  0.11649747  0.72542275  0.88347776    -0.00480
C457        C  0.10249836  0.68534763  0.91089739    -0.12210
C458        C  0.10626801  0.67722963  0.96822781     0.01730
H459        H  0.15274919  0.77388216  0.99425282     0.14710
H460        H  0.08825138  0.66093950  0.88762318     0.14710
C461        C  0.09055255  0.63715230  0.99546258     0.36360
C462        C  0.15037163  0.79768480  0.88677487     0.36270
N463        N  0.07785929  0.60531964  0.01751595    -0.43980
N464        N  0.16330579  0.82937976  0.86514917    -0.43980
C465        C  0.11537251  0.71968131  0.38322190    -0.00390
C466        C  0.12931076  0.67690396  0.40032942    -0.12270
C467        C  0.13516097  0.66919875  0.45691632     0.01840
C468        C  0.12696573  0.70494450  0.49869699    -0.00480
C469        C  0.11296246  0.74768069  0.48172514    -0.12210
C470        C  0.10708778  0.75539875  0.42505226     0.01730
H471        H  0.13586947  0.64901717  0.36927754     0.14710
H472        H  0.10645385  0.77546559  0.51294759     0.14710
C473        C  0.09234667  0.80028739  0.41209366     0.36360
C474        C  0.15009589  0.62454776  0.46978050     0.36270
N475        N  0.08051375  0.83631402  0.40213330    -0.43980
N476        N  0.16199105  0.58857719  0.47959264    -0.43980
C477        C  0.26843187  0.75887658  0.04586454    -0.00390
C478        C  0.25338493  0.71619995  0.02544378    -0.12270
C479        C  0.22863019  0.70267988  0.04885149     0.01840
C480        C  0.21850870  0.73163590  0.09502453    -0.00480
C481        C  0.23334664  0.77495845  0.11474678    -0.12210
C482        C  0.25807371  0.78864352  0.09101514     0.01730
H483        H  0.26096240  0.69331217  0.99075156     0.14710
H484        H  0.22592509  0.79757404  0.14979807     0.14710
C485        C  0.27286789  0.83187391  0.11619653     0.36360
C486        C  0.21390636  0.65964020  0.02302359     0.36270
N487        N  0.28466599  0.86650649  0.13649351    -0.43980
N488        N  0.20216832  0.62517376  0.00223569    -0.43980
C489        C  0.96673078  0.69616507  0.75488037    -0.00390
C490        C  0.98037236  0.66384596  0.71781844    -0.12270
C491        C  0.00825034  0.66585786  0.71598295     0.01840
C492        C  0.02272102  0.70098385  0.75156369    -0.00480
C493        C  0.00902913  0.72889566  0.79267746    -0.12210
C494        C  0.98133484  0.72634621  0.79504573     0.01730
H495        H  0.96932407  0.64015944  0.68723149     0.14710
H496        H  0.01998631  0.75453551  0.82159245     0.14710
C497        C  0.96832392  0.75668784  0.83778872     0.36360
C498        C  0.02127975  0.63499763  0.67388419     0.36270
N499        N  0.95787770  0.78093046  0.87199389    -0.43980
N500        N  0.03174430  0.61019274  0.64021840    -0.43980
C501        C  0.96732542  0.68701680  0.23755988    -0.00390
C502        C  0.98092311  0.70111917  0.28720414    -0.12270
C503        C  0.00863236  0.70027862  0.28949247     0.01840
C504        C  0.02306834  0.68518071  0.24145486    -0.00480
C505        C  0.00934050  0.66710678  0.19328050    -0.12210
C506        C  0.98156182  0.66817170  0.19091085     0.01730
H507        H  0.96998463  0.71562642  0.32312183     0.14710
H508        H  0.02040166  0.65642621  0.15590865     0.14710
C509        C  0.96833023  0.65488823  0.13850565     0.36360
C510        C  0.02199622  0.71776115  0.34045433     0.36270
N511        N  0.95766060  0.64459762  0.09649077    -0.43980
N512        N  0.03271996  0.73156942  0.38132927    -0.43980
C513        C  0.87474217  0.71592009  0.88441166    -0.00390
C514        C  0.85685047  0.74766479  0.91208275    -0.12270
C515        C  0.85233214  0.74338121  0.97000102     0.01840
C516        C  0.86595105  0.70661999  0.00100524    -0.00480
C517        C  0.88442025  0.67597473  0.97334168    -0.12210
C518        C  0.88925362  0.68105255  0.91570212     0.01730
H519        H  0.84618050  0.77542740  0.88822158     0.14710
H520        H  0.89533609  0.64843945  0.99699945     0.14710
C521        C  0.91051373  0.65293931  0.89038974     0.36360
C522        C  0.83277093  0.77552945  0.99580519     0.36270
N523        N  0.92791693  0.63131013  0.87033234    -0.43980
N524        N  0.81712642  0.80137041  0.01640749    -0.43980
C525        C  0.87693864  0.71049350  0.38344284    -0.00390
C526        C  0.85307363  0.68448115  0.39835676    -0.12270
C527        C  0.84615308  0.67751017  0.45478400     0.01840
C528        C  0.86353465  0.69594277  0.49777047    -0.00480
C529        C  0.88726671  0.72237685  0.48315500    -0.12210
C530        C  0.89416883  0.72963951  0.42664102     0.01730
H531        H  0.83943446  0.67049703  0.36578339     0.14710
H532        H  0.90062157  0.73684009  0.51603636     0.14710
C533        C  0.91943020  0.75532826  0.41456975     0.36360
C534        C  0.82039506  0.65403109  0.46737257     0.36270
N535        N  0.93968903  0.77593443  0.40512998    -0.43980
N536        N  0.79970051  0.63559599  0.47757344    -0.43980
C537        C  0.46834888  0.76361925  0.42242875    -0.00390
C538        C  0.48293929  0.80828419  0.40589433    -0.12270
C539        C  0.51107034  0.80983918  0.40594269     0.01840
C540        C  0.52475509  0.76589895  0.42198458    -0.00480
C541        C  0.50992227  0.72327977  0.44210686    -0.12210
C542        C  0.48246393  0.72160895  0.44275861     0.01730
H543        H  0.47246328  0.84138930  0.39193746     0.14710
H544        H  0.51992964  0.69016142  0.45777796     0.14710
C545        C  0.46965117  0.67565754  0.46567137     0.36360
C546        C  0.52516391  0.85639005  0.38915320     0.36270
N547        N  0.45966246  0.63853217  0.48357083    -0.43980
N548        N  0.53625258  0.89423416  0.37630254    -0.43980
C549        C  0.72261178  0.73920029  0.54813819    -0.00390
C550        C  0.74461834  0.77371228  0.54266213    -0.12270
C551        C  0.76874036  0.76523859  0.56956128     0.01840
C552        C  0.77121111  0.72155302  0.60368262    -0.00480
C553        C  0.74919142  0.68695521  0.60897463    -0.12210
C554        C  0.72509129  0.69541051  0.58196271     0.01730
H555        H  0.74297831  0.80759811  0.51704302     0.14710
H556        H  0.75073196  0.65314405  0.63473846     0.14710
C557        C  0.70290152  0.65992558  0.59233783     0.36360
C558        C  0.79083838  0.80094273  0.55915233     0.36270
N559        N  0.68513806  0.63155481  0.60098335    -0.43980
N560        N  0.80851680  0.82954178  0.55057475    -0.43980
C561        C  0.52552041  0.75895324  0.93284737    -0.00390
C562        C  0.51085514  0.72649685  0.96878296    -0.12270
C563        C  0.48330346  0.72647014  0.97037928     0.01840
C564        C  0.46950021  0.75981205  0.93558331    -0.00480
C565        C  0.48409918  0.79512876  0.90218023    -0.12210
C566        C  0.51208889  0.79473358  0.90037147     0.01730
H567        H  0.52105209  0.69970698  0.99491842     0.14710
H568        H  0.47367333  0.82107419  0.87556469     0.14710
C569        C  0.52637015  0.82860585  0.86240574     0.36360
C570        C  0.46982000  0.69098192  0.00799397     0.36270
N571        N  0.53786580  0.85566499  0.83187987    -0.43980
N572        N  0.45955727  0.66209699  0.03837457    -0.43980
C573        C  0.61763906  0.74907688  0.77236628    -0.00390
C574        C  0.60810381  0.71261537  0.73197678    -0.12270
C575        C  0.61338522  0.71853038  0.67445041     0.01840
C576        C  0.62839381  0.76226589  0.65577496    -0.00480
C577        C  0.63772435  0.79879378  0.69605868    -0.12210
C578        C  0.63280447  0.79256363  0.75346635     0.01730
H579        H  0.59642884  0.67899901  0.74522261     0.14710
H580        H  0.64966583  0.83212590  0.68292431     0.14710
C581        C  0.64451444  0.83105087  0.79138202     0.36360
C582        C  0.60292344  0.67901198  0.63610331     0.36270
N583        N  0.65417029  0.86195145  0.82132178    -0.43980
N584        N  0.59457161  0.64712006  0.60564927    -0.43980
C585        C  0.62808354  0.75675438  0.15334893    -0.00390
C586        C  0.60939097  0.78820325  0.17913689    -0.12270
C587        C  0.60431762  0.78540540  0.23691908     0.01840
C588        C  0.61873476  0.75198498  0.27016860    -0.00480
C589        C  0.63711114  0.71992975  0.24448617    -0.12210
C590        C  0.64193521  0.72200410  0.18654729     0.01730
H591        H  0.59841570  0.81444669  0.15387281     0.14710
H592        H  0.64777064  0.69329695  0.26989555     0.14710
C593        C  0.66198976  0.68966536  0.16296492     0.36360
C594        C  0.58279458  0.81397500  0.26021892     0.36270
N595        N  0.67806463  0.66370506  0.14422931    -0.43980
N596        N  0.56508920  0.83597320  0.27832667    -0.43980
C597        C  0.72208977  0.73579525  0.05355989    -0.00390
C598        C  0.72817884  0.75466457  0.10821945    -0.12270
C599        C  0.75291645  0.74721022  0.13279849     0.01840
C600        C  0.77221869  0.72040677  0.10248885    -0.00480
C601        C  0.76615662  0.70166174  0.04779590    -0.12210
C602        C  0.74143903  0.70915507  0.02319517     0.01730
H603        H  0.71338351  0.77497201  0.13221380     0.14710
H604        H  0.78098005  0.68145904  0.02376777     0.14710
C605        C  0.73698700  0.69124414  0.96599690     0.36360
C606        C  0.75747392  0.76545959  0.18983913     0.36270
N607        N  0.73350644  0.67704197  0.92006629    -0.43980
N608        N  0.76103300  0.77998727  0.23563079    -0.43980
C609        C  0.34938536  0.45697024  0.95849727    -0.00390
C610        C  0.37288821  0.48619738  0.96896438    -0.12270
C611        C  0.37320240  0.54000171  0.97061356     0.01840
C612        C  0.34949079  0.56621173  0.96360141    -0.00480
C613        C  0.32570523  0.53721427  0.95388341    -0.12210
C614        C  0.32553967  0.48278784  0.95094180     0.01730
H615        H  0.39132969  0.46676936  0.97482753     0.14710
H616        H  0.30747009  0.55701276  0.94721348     0.14710
C617        C  0.30077397  0.45425344  0.94148170     0.36360
C618        C  0.39839701  0.56759890  0.97816337     0.36270
N619        N  0.28093675  0.43121806  0.93401605    -0.43980
N620        N  0.41866744  0.58950429  0.98369631    -0.43980
C621        C  0.38744768  0.95996449  0.96939936    -0.00390
C622        C  0.37657219  0.99209258  0.01134083    -0.12270
C623        C  0.37560149  0.04545724  0.00480794     0.01840
C624        C  0.38575938  0.06835660  0.95555127    -0.00480
C625        C  0.39787715  0.03711712  0.91477619    -0.12210
C626        C  0.39915748  0.98353260  0.92155422     0.01730
H627        H  0.36756844  0.97537502  0.04863950     0.14710
H628        H  0.40581751  0.05453635  0.87681328     0.14710
C629        C  0.41222075  0.95400193  0.87833401     0.36360
C630        C  0.36184200  0.07513792  0.04696771     0.36270
N631        N  0.42285329  0.93041271  0.84383781    -0.43980
N632        N  0.35065476  0.09884782  0.08050818    -0.43980
C633        C  0.36609481  0.45817752  0.46171332    -0.00390
C634        C  0.38302806  0.48950549  0.49597346    -0.12270
C635        C  0.37847973  0.54244256  0.50417698     0.01840
C636        C  0.35655923  0.56484063  0.47838880    -0.00480
C637        C  0.33873139  0.53287782  0.44756626    -0.12210
C638        C  0.34299650  0.48017301  0.43976254     0.01730
H639        H  0.40052860  0.47334234  0.51400117     0.14710
H640        H  0.32190087  0.54966927  0.42743533     0.14710
C641        C  0.32308180  0.44979754  0.40895719     0.36360
C642        C  0.39747531  0.57383211  0.53620802     0.36270
N643        N  0.30686445  0.42597058  0.38448456    -0.43980
N644        N  0.41261791  0.59909015  0.56204748    -0.43980
C645        C  0.35844983  0.06351129  0.44491536    -0.00390
C646        C  0.35110736  0.03739205  0.49391246    -0.12270
C647        C  0.35681263  0.98574139  0.50155116     0.01840
C648        C  0.37059613  0.95773608  0.45923857    -0.00480
C649        C  0.37684003  0.98323088  0.40860743    -0.12210
C650        C  0.37094077  0.03561068  0.40125760     0.01730
H651        H  0.34151541  0.05829297  0.52778312     0.14710
H652        H  0.38692403  0.96271400  0.37523517     0.14710
C653        C  0.37929572  0.06063117  0.35010129     0.36360
C654        C  0.34829474  0.96356801  0.55433026     0.36270
N655        N  0.38597844  0.08074053  0.30905944    -0.43980
N656        N  0.34140143  0.94619445  0.59671267    -0.43980
C657        C  0.37919336  0.26667697  0.63661535    -0.00390
C658        C  0.39827510  0.24751171  0.67294997    -0.12270
C659        C  0.39481312  0.24932912  0.73128326     0.01840
C660        C  0.37185989  0.27061465  0.75446458    -0.00480
C661        C  0.35388093  0.29389439  0.71865040    -0.12210
C662        C  0.35724465  0.29173554  0.65991525     0.01730
H663        H  0.41565267  0.22960255  0.65556997     0.14710
H664        H  0.33605276  0.30995011  0.73622106     0.14710
C665        C  0.33670782  0.31104926  0.62470239     0.36360
C666        C  0.41479259  0.22806832  0.76660744     0.36270
N667        N  0.32014369  0.32627970  0.59655091    -0.43980
N668        N  0.43079205  0.21124427  0.79505779    -0.43980
C669        C  0.36471448  0.26213743  0.25080334    -0.00390
C670        C  0.34528447  0.24549086  0.21169720    -0.12270
C671        C  0.35050422  0.24688954  0.15371132     0.01840
C672        C  0.37550848  0.26577484  0.13436256    -0.00480
C673        C  0.39527589  0.28017404  0.17388418    -0.12210
C674        C  0.39010159  0.27817263  0.23175792     0.01730
H675        H  0.32562043  0.23365415  0.22644466     0.14710
H676        H  0.41465877  0.29404008  0.15944349     0.14710
C677        C  0.41084458  0.29388227  0.27096869     0.36360
C678        C  0.32925698  0.23263496  0.11517098     0.36270
N679        N  0.42743231  0.30613299  0.30260428    -0.43980
N680        N  0.31215893  0.22133258  0.08440378    -0.43980
C681        C  0.11195288  0.52200662  0.71022290    -0.00390
C682        C  0.12694068  0.50335109  0.75473085    -0.12270
C683        C  0.13149263  0.45045922  0.75865192     0.01840
C684        C  0.12057818  0.41564991  0.71772883    -0.00480
C685        C  0.10404978  0.43472280  0.67574443    -0.12210
C686        C  0.09993494  0.48713865  0.67140181     0.01730
H687        H  0.13649172  0.53041754  0.78428216     0.14710
H688        H  0.09474353  0.40876159  0.64475701     0.14710
C689        C  0.08385630  0.50444669  0.62566190     0.36360
C690        C  0.14858263  0.43373877  0.80280167     0.36270
N691        N  0.07105819  0.51835184  0.58896636    -0.43980
N692        N  0.16235375  0.42053228  0.83820678    -0.43980
C693        C  0.12987174  0.02281219  0.69481398    -0.00390
C694        C  0.14915054  0.99746911  0.72552868    -0.12270
C695        C  0.15254324  0.94461246  0.71871445     0.01840
C696        C  0.13647701  0.91545958  0.68064068    -0.00480
C697        C  0.11860531  0.94093785  0.64661257    -0.12210
C698        C  0.11532058  0.99433529  0.65297426     0.01730
H699        H  0.16135602  0.01877947  0.75617513     0.14710
H700        H  0.10594693  0.91858289  0.61766341     0.14710
C701        C  0.09592107  0.01794603  0.61822621     0.36360
C702        C  0.17227612  0.92079143  0.75244605     0.36270
N703        N  0.08042545  0.03685335  0.59018687    -0.43980
N704        N  0.18834272  0.90214931  0.77918735    -0.43980
C705        C  0.22261764  0.26249752  0.79000808    -0.00390
C706        C  0.24414582  0.24432973  0.75945904    -0.12270
C707        C  0.26958299  0.24555683  0.78258654     0.01840
C708        C  0.27394158  0.26518067  0.83813745    -0.00480
C709        C  0.25278549  0.28799578  0.86666244    -0.12210
C710        C  0.22714336  0.28643336  0.84313742     0.01730
H711        H  0.24070696  0.22584207  0.71865014     0.14710
H712        H  0.25580810  0.30368669  0.90885535     0.14710
C713        C  0.20538455  0.30515077  0.87631512     0.36360
C714        C  0.29043499  0.22391143  0.74880454     0.36270
N715        N  0.18789944  0.32000978  0.90288985    -0.43980
N716        N  0.30687348  0.20591235  0.72160270    -0.43980
C717        C  0.13347146  0.40716851  0.21490625    -0.00390
C718        C  0.12426819  0.43512050  0.26183757    -0.12270
C719        C  0.11954575  0.48821064  0.25817278     0.01840
C720        C  0.12382724  0.51377358  0.20652052    -0.00480
C721        C  0.13478859  0.48594988  0.16130419    -0.12210
C722        C  0.13967217  0.43377170  0.16505047     0.01730
H723        H  0.11941414  0.41499882  0.30035094     0.14710
H724        H  0.13927641  0.50468243  0.12177557     0.14710
C725        C  0.15048940  0.40809355  0.11607467     0.36360
C726        C  0.10994417  0.51488807  0.30749840     0.36270
N727        N  0.15903631  0.38765655  0.07672291    -0.43980
N728        N  0.10239399  0.53627816  0.34721209    -0.43980
C729        C  0.12431067  0.01401149  0.19606263    -0.00390
C730        C  0.14256108  0.99035205  0.23110261    -0.12270
C731        C  0.14676635  0.93768829  0.22669806     0.01840
C732        C  0.13287243  0.90731610  0.18615362    -0.00480
C733        C  0.11601633  0.93104140  0.14832100    -0.12210
C734        C  0.11161601  0.98412413  0.15289982     0.01730
H735        H  0.15319090  0.01280791  0.26336303     0.14710
H736        H  0.10494029  0.90751672  0.11762747     0.14710
C737        C  0.09275301  0.00590697  0.11538876     0.36360
C738        C  0.16481498  0.91521362  0.26560207     0.36270
N739        N  0.07759707  0.02335517  0.08536235    -0.43980
N740        N  0.17928807  0.89723579  0.29673065    -0.43980
C741        C  0.12789547  0.20757792  0.40839748    -0.00390
C742        C  0.14533712  0.18961167  0.44887138    -0.12270
C743        C  0.14025801  0.19597395  0.50639325     0.01840
C744        C  0.11696634  0.22002075  0.52442132    -0.00480
C745        C  0.09961155  0.23838003  0.48373772    -0.11570
C746        C  0.10487688  0.23241898  0.42613100     0.01730
H747        H  0.16337066  0.17144709  0.43541031     0.14710
H748        H  0.08158622  0.25666234  0.49695307     0.14710
C749        C  0.08577286  0.25001670  0.38632337     0.36360
C750        C  0.15998233  0.17967260  0.54555654     0.36270
N751        N  0.07029028  0.26402046  0.35474600    -0.43980
N752        N  0.17602966  0.16675795  0.57645920    -0.43980
C753        C  0.13021407  0.21516298  0.90925551    -0.00390
C754        C  0.10554352  0.23407098  0.92488257    -0.12270
C755        C  0.09771193  0.23576036  0.98155318     0.01840
C756        C  0.11491532  0.21872541  0.02385127    -0.00480
C757        C  0.13967542  0.20026694  0.00803952    -0.12210
C758        C  0.14751230  0.19876369  0.95152480     0.01730
H759        H  0.09209902  0.24636152  0.89262545     0.14710
H760        H  0.15326534  0.18817283  0.04011477     0.14710
C761        C  0.17394890  0.18254768  0.93830084     0.36360
C762        C  0.07149442  0.25309673  0.99472690     0.36270
N763        N  0.19516998  0.16990439  0.92762311    -0.43980
N764        N  0.05045277  0.26684404  0.00520718    -0.43980
C765        C  0.26938679  0.24155209  0.35984022    -0.00390
C766        C  0.26759660  0.20885773  0.31231883    -0.12270
C767        C  0.24406724  0.20388064  0.28109627     0.01840
C768        C  0.22170992  0.23182451  0.29742759    -0.00480
C769        C  0.22352729  0.26463590  0.34487399    -0.12210
C770        C  0.24708707  0.26969451  0.37602685     0.01730
H771        H  0.28495643  0.18880622  0.29819955     0.14710
H772        H  0.20617142  0.28468009  0.35901523     0.14710
C773        C  0.24775312  0.30295124  0.42541122     0.36360
C774        C  0.24350735  0.17087883  0.23150651     0.36270
N775        N  0.24827731  0.32940377  0.46513712    -0.43980
N776        N  0.24310381  0.14463865  0.19161483    -0.43980
C777        C  0.85890187  0.40130397  0.71870050    -0.00390
C778        C  0.87003148  0.43131850  0.76293795    -0.12270
C779        C  0.87358536  0.48510770  0.75821398     0.01840
C780        C  0.86600350  0.50952890  0.70815121    -0.00480
C781        C  0.85308634  0.47921148  0.66595621    -0.12210
C782        C  0.84951591  0.42598985  0.67080004     0.01730
H783        H  0.87738152  0.41244157  0.79981790     0.14710
H784        H  0.84611298  0.49681401  0.62797387     0.14710
C785        C  0.83667317  0.39726084  0.62512372     0.36360
C786        C  0.88559765  0.51338824  0.80487246     0.36270
N787        N  0.82638923  0.37435857  0.58850631    -0.43980
N788        N  0.89512241  0.53526042  0.84301444    -0.43980
C789        C  0.86437488  0.00979896  0.69035311    -0.00390
C790        C  0.84781027  0.98221400  0.72797346    -0.12270
C791        C  0.84444537  0.92892497  0.72386220     0.01840
C792        C  0.85746382  0.90178962  0.68091218    -0.00480
C793        C  0.87198774  0.92917762  0.63987301    -0.12210
C794        C  0.87555782  0.98308093  0.64419601     0.01730
H795        H  0.83809502  0.00204081  0.76240697     0.14710
H796        H  0.88212626  0.90821199  0.60688392     0.14710
C797        C  0.89190176  0.00918417  0.60275357     0.36360
C798        C  0.82852519  0.90263327  0.76605118     0.36270
N799        N  0.90496629  0.03004781  0.56939418    -0.43980
N800        N  0.81586214  0.88166880  0.79999076    -0.43980
C801        C  0.96841812  0.18601496  0.68015182    -0.00390
C802        C  0.98256814  0.20239513  0.72825035    -0.12270
C803        C  0.01019683  0.20202088  0.72941889     0.01840
C804        C  0.02430916  0.18487134  0.68171759    -0.00480
C805        C  0.01015769  0.16465764  0.63489984    -0.12210
C806        C  0.98219547  0.16492407  0.63394441     0.01730
H807        H  0.97203227  0.21860654  0.76388278     0.14710
H808        H  0.02090777  0.15237943  0.59773934     0.14710
C809        C  0.96824196  0.14756497  0.58373882     0.36360
C810        C  0.02380946  0.22386878  0.77831806     0.36270
N811        N  0.95698054  0.13360718  0.54356432    -0.43980
N812        N  0.03474114  0.24169575  0.81721252    -0.43980
C813        C  0.86869531  0.40055164  0.21694881    -0.00390
C814        C  0.88515007  0.42359476  0.17560235    -0.12270
C815        C  0.88804243  0.47679256  0.17155640     0.01840
C816        C  0.87465101  0.50836759  0.20975714    -0.00480
C817        C  0.85993380  0.48618141  0.25399020    -0.12210
C818        C  0.85679146  0.43241905  0.25791244     0.01730
H819        H  0.89535454  0.40008919  0.14489854     0.14710
H820        H  0.84956970  0.51080952  0.28334735     0.14710
C821        C  0.84034154  0.41152378  0.30247028     0.36360
C822        C  0.90431590  0.49822914  0.12683459     0.36270
N823        N  0.82716213  0.39492166  0.33831064    -0.43980
N824        N  0.91731023  0.51552232  0.09108264    -0.43980
C825        C  0.86699461  0.00790163  0.20637843    -0.00390
C826        C  0.86374917  0.98008844  0.25626067    -0.12270
C827        C  0.85989697  0.92694476  0.25551705     0.01840
C828        C  0.85984886  0.89934073  0.20375622    -0.00480
C829        C  0.86244762  0.92673374  0.15336446    -0.12210
C830        C  0.86597231  0.98077437  0.15423570     0.01730
H831        H  0.86412068  0.99992360  0.29684752     0.14710
H832        H  0.86251584  0.90586109  0.11342693     0.14710
C833        C  0.86808865  0.00698965  0.10130142     0.36360
C834        C  0.85586356  0.90215028  0.30911675     0.36270
N835        N  0.86971718  0.02759317  0.05857580    -0.43980
N836        N  0.85274795  0.88257520  0.35215168    -0.43980
C837        C  0.96733638  0.18313812  0.18316810    -0.00390
C838        C  0.98057001  0.16363998  0.13570785    -0.12270
C839        C  0.00849724  0.16361143  0.13437537     0.01840
C840        C  0.02312126  0.18304111  0.18114344    -0.00480
C841        C  0.00969605  0.19831430  0.22995229    -0.12210
C842        C  0.98208180  0.19870734  0.23127583     0.01730
H843        H  0.96928927  0.15219607  0.09844286     0.14710
H844        H  0.02093201  0.21344281  0.26591794     0.14710
C845        C  0.96933692  0.21899649  0.28110563     0.36360
C846        C  0.02173881  0.14780850  0.08336151     0.36270
N847        N  0.95908294  0.23550033  0.32077682    -0.43980
N848        N  0.03244542  0.13513616  0.04255175    -0.43980
C849        C  0.86180107  0.20477955  0.41037763    -0.00390
C850        C  0.88214194  0.24052193  0.42602997    -0.12270
C851        C  0.88979945  0.24701710  0.48250907     0.01840
C852        C  0.87673049  0.21753723  0.52484751    -0.00480
C853        C  0.85597836  0.18271839  0.50891494    -0.12210
C854        C  0.84838792  0.17623920  0.45275636     0.01730
H855        H  0.89254092  0.26259831  0.39386401     0.14710
H856        H  0.84532524  0.16050723  0.54060916     0.14710
C857        C  0.82615947  0.14098453  0.44047573     0.36360
C858        C  0.91163637  0.28303215  0.49493482     0.36270
N859        N  0.80837322  0.11268908  0.43084812    -0.43980
N860        N  0.92915366  0.31195811  0.50457994    -0.43980
C861        C  0.87691171  0.21133059  0.02496209    -0.00390
C862        C  0.86950978  0.16237176  0.00330520    -0.12270
C863        C  0.86351451  0.15446283  0.94639538     0.01840
C864        C  0.86473456  0.19660319  0.90894803    -0.00480
C865        C  0.87228705  0.24569284  0.93066229    -0.12210
C866        C  0.87825267  0.25348823  0.98778791     0.01730
H867        H  0.86851563  0.12968112  0.03105169     0.14710
H868        H  0.87314735  0.27859745  0.90314562     0.14710
C869        C  0.88475070  0.30561336  0.00680528     0.36360
C870        C  0.85609216  0.10234099  0.92873921     0.36270
N871        N  0.88991398  0.34747141  0.02171669    -0.43980
N872        N  0.85012236  0.06051613  0.91497834    -0.43980
C873        C  0.63107749  0.55615872  0.95642591    -0.00390
C874        C  0.62637631  0.53104258  0.90437968    -0.12270
C875        C  0.62032984  0.47845951  0.90037632     0.01840
C876        C  0.61978119  0.44807360  0.94930245    -0.00480
C877        C  0.62428416  0.47275338  0.00188249    -0.12210
C878        C  0.62973836  0.52647729  0.00585486     0.01730
H879        H  0.62694363  0.55284811  0.86582447     0.14710
H880        H  0.62401191  0.45002884  0.03974254     0.14710
C881        C  0.63310777  0.55002156  0.06093542     0.36360
C882        C  0.61429321  0.45737540  0.84485637     0.36270
N883        N  0.63566026  0.56873477  0.10525444    -0.43980
N884        N  0.60953501  0.44066016  0.80037258    -0.43980
C885        C  0.62579335  0.05638556  0.93472104    -0.00390
C886        C  0.60422233  0.03276234  0.96353787    -0.12270
C887        C  0.60120085  0.97925552  0.96615620     0.01840
C888        C  0.61989486  0.94850350  0.93947919    -0.00480
C889        C  0.64027141  0.97161051  0.90710661    -0.12210
C890        C  0.64322717  0.02533882  0.90397695     0.01730
H891        H  0.59022508  0.05621806  0.98613404     0.14710
H892        H  0.65497640  0.94780295  0.88742573     0.14710
C893        C  0.66543973  0.04714792  0.87285175     0.36360
C894        C  0.57978351  0.95673730  0.99924272     0.36270
N895        N  0.68329553  0.06415690  0.84764986    -0.43980
N896        N  0.56263306  0.93859203  0.02568052    -0.43980
C897        C  0.52325917  0.26105994  0.99201883    -0.00390
C898        C  0.51269588  0.29388910  0.95238827    -0.12270
C899        C  0.48522872  0.29903862  0.94800389     0.01840
C900        C  0.46773292  0.27157622  0.98433885    -0.00480
C901        C  0.47826022  0.23932517  0.02462203    -0.12210
C902        C  0.50577576  0.23403361  0.02889709     0.01730
H903        H  0.52585475  0.31375179  0.92299602     0.14710
H904        H  0.46499655  0.21886794  0.05332848     0.14710
C905        C  0.51563789  0.20166171  0.07237683     0.36360
C906        C  0.47538910  0.33031205  0.90353994     0.36270
N907        N  0.52359047  0.17592770  0.10733071    -0.43980
N908        N  0.46745484  0.35502779  0.86768255    -0.43980
C909        C  0.72204883  0.24103169  0.85816612    -0.00390
C910        C  0.73377249  0.27645939  0.82010716    -0.12270
C911        C  0.75783843  0.26707415  0.79275352     0.01840
C912        C  0.77086522  0.22110092  0.80290285    -0.00480
C913        C  0.75922018  0.18588340  0.84128774    -0.12210
C914        C  0.73525208  0.19537600  0.86882498     0.01730
H915        H  0.72382502  0.31151322  0.81053383     0.14710
H916        H  0.76915147  0.15083182  0.85096759     0.14710
C917        C  0.72533327  0.15834722  0.90917090     0.36360
C918        C  0.76815559  0.30470529  0.75348200     0.36270
N919        N  0.71753720  0.12868227  0.94166452    -0.43980
N920        N  0.77637661  0.33495392  0.72205855    -0.43980
C921        C  0.62310323  0.56291552  0.47278962    -0.00390
C922        C  0.63824654  0.53553794  0.51077722    -0.12270
C923        C  0.63564684  0.48162326  0.51259091     0.01840
C924        C  0.61758669  0.45492224  0.47631701    -0.00480
C925        C  0.60063194  0.48238640  0.44284990    -0.12210
C926        C  0.60299099  0.53594351  0.44106439     0.01730
H927        H  0.65322152  0.55577122  0.53633591     0.14710
H928        H  0.58668779  0.46164655  0.41511688     0.14710
C929        C  0.58490254  0.56160132  0.40480718     0.36360
C930        C  0.65306583  0.45415183  0.54854719     0.36270
N931        N  0.57035688  0.58175514  0.37557978    -0.43980
N932        N  0.66693575  0.43195478  0.57739563    -0.43980
C933        C  0.63765415  0.06288189  0.43748809    -0.00390
C934        C  0.62311376  0.03440505  0.39653785    -0.12270
C935        C  0.61877496  0.98081050  0.40127513     0.01840
C936        C  0.62902789  0.95501790  0.44807194    -0.00480
C937        C  0.64527755  0.98363606  0.48643155    -0.12210
C938        C  0.64954542  0.03678232  0.48160126     0.01730
H939        H  0.61367505  0.05449979  0.36281933     0.14710
H940        H  0.65428412  0.96477377  0.52154161     0.14710
C941        C  0.66555030  0.06415220  0.52366010     0.36360
C942        C  0.60289868  0.95432747  0.35867737     0.36270
N943        N  0.67840857  0.08601423  0.55730295    -0.43980
N944        N  0.59022551  0.93391998  0.32378944    -0.43980
C945        C  0.52480443  0.26812110  0.47375545    -0.00390
C946        C  0.50941143  0.23126989  0.44330173    -0.12270
C947        C  0.48196648  0.23303373  0.44136986     0.01840
C948        C  0.46872804  0.27155696  0.47215134    -0.00480
C949        C  0.48396345  0.31154114  0.49843441    -0.12210
C950        C  0.51200165  0.31065069  0.49840431     0.01730
H951        H  0.51890572  0.20011151  0.42099824     0.14710
H952        H  0.47406330  0.34227402  0.52046555     0.14710
C953        C  0.52684147  0.35350464  0.52374365     0.36360
C954        C  0.46786737  0.19381305  0.40776271     0.36270
N955        N  0.53837391  0.38896770  0.54290834    -0.43980
N956        N  0.45662095  0.16229437  0.38111007    -0.43980
C957        C  0.61607806  0.24606042  0.63407045    -0.00390
C958        C  0.63172861  0.20921694  0.65906643    -0.12270
C959        C  0.63796797  0.21272689  0.71653789     0.01840
C960        C  0.62784907  0.25292015  0.74999109    -0.00480
C961        C  0.61194049  0.28920989  0.72505301    -0.12210
C962        C  0.60600209  0.28607003  0.66766401     0.01730
H963        H  0.63972025  0.17858716  0.63327864     0.14710
H964        H  0.60420695  0.32030515  0.75056576     0.14710
C965        C  0.58889386  0.32356234  0.64477653     0.36360
C966        C  0.65632447  0.17718832  0.73920650     0.36270
N967        N  0.57507667  0.35387278  0.62719329    -0.43980
N968        N  0.67129937  0.14919621  0.75729352    -0.43980
C969        C  0.62777067  0.26641067  0.25363440    -0.00390
C970        C  0.61634663  0.21898714  0.23527830    -0.12270
C971        C  0.61060942  0.20913783  0.17833475     0.01840
C972        C  0.61634124  0.24755519  0.13755560    -0.00480
C973        C  0.62790817  0.29494047  0.15616309    -0.12210
C974        C  0.63374583  0.30456736  0.21308744     0.01730
H975        H  0.61184219  0.18919058  0.26568758     0.14710
H976        H  0.63270785  0.32480590  0.12604586     0.14710
C977        C  0.64698359  0.35327841  0.22778149     0.36360
C978        C  0.59895293  0.15891412  0.16396414     0.36270
N979        N  0.65765310  0.39228923  0.23934237    -0.43980
N980        N  0.58965088  0.11856747  0.15285684    -0.43980
C981        C  0.77071529  0.22639559  0.30128413    -0.00390
C982        C  0.76633161  0.21412561  0.35804822    -0.12270
C983        C  0.74199147  0.22276833  0.38422370     0.01840
C984        C  0.72146224  0.24389350  0.35320030    -0.00480
C985        C  0.72594156  0.25662378  0.29643987    -0.12210
C986        C  0.75032898  0.24781099  0.27025198     0.01730
H987        H  0.78212680  0.19789355  0.38211378     0.14710
H988        H  0.71017183  0.27289334  0.27228038     0.14710
C989        C  0.75354333  0.25868804  0.21121292     0.36360
C990        C  0.73904135  0.21194440  0.44336548     0.36270
N991        N  0.75601889  0.26711270  0.16377829    -0.43980
N992        N  0.73679128  0.20354799  0.49085382    -0.43980
loop_ 
_geom_bond_atom_site_label_1 
_geom_bond_atom_site_label_2 
_geom_bond_distance 
_geom_bond_site_symmetry_2 
_ccdc_geom_bond_type 
O1           Ni7   1.911       .  S
O1           C22   1.266       .  A
O2          Ni25   1.902       .  S
O2           C11   1.264       .  A
O3           Ni7   1.895       .  S
O3          Ni25   1.897       .  S
O3          Ni19   1.909       .  S
O3           H26   0.966       .  S
C4           O21   1.276       .  A
C4           O13   1.272       .  A
C4          C984   1.475       .  S
O5          Ni24   1.918       .  S
O5           C11   1.268       .  A
O6          Ni24   1.900       .  S
O6            C8   1.267       .  A
Ni7          O10   1.910       .  S
Ni7          O12   1.902       .  S
C8           O18   1.277       .  A
C8          C969   1.489       .  S
O9          Ni25   1.941       .  S
O9           C15   1.280       .  A
O10          C15   1.280       .  A
C11         C924   1.460       .  S
O12          C14   1.263       .  A
O13         Ni24   1.920       .  S
C14          O20   1.270       .  A
C14         C957   1.474       .  S
C15         C945   1.488       .  S
H16          O17   0.966       .  S
O17         Ni25   1.923       .  S
O17         Ni19   1.916       .  S
O17         Ni24   1.910       .  S
O18         Ni19   1.944       .  S
Ni19         O23   1.929       .  S
Ni19         O21   1.918       .  S
O20         Ni25   1.926       .  S
C22          O23   1.271       .  A
C22         C933   1.473       .  S
O27         Ni33   1.897       .  S
O27          C48   1.264       .  A
O28         Ni51   1.939       .  S
O28          C37   1.271       .  A
O29         Ni33   1.889       .  S
O29         Ni51   1.894       .  S
O29         Ni45   1.931       .  S
O29          H52   0.966       .  S
C30          O47   1.286       .  A
C30          O39   1.278       .  A
C30         C909   1.492       .  S
O31         Ni50   1.897       .  S
O31          C37   1.261       .  A
O32         Ni50   1.895       .  S
O32          C34   1.264       .  A
Ni33         O36   1.909       .  S
Ni33         O38   1.897   1_556  S
C34          O44   1.270       .  A
C34         C960   1.473       .  S
O35         Ni51   1.943       .  S
O35          C41   1.287       .  A
O36          C41   1.278       .  A
C37         C876   1.488       .  S
O38          C40   1.264       .  A
O39         Ni50   1.911       .  S
C40          O46   1.275       .  A
C40         C972   1.498       .  S
C41         C897   1.481       .  S
H42          O43   0.966       .  S
O43         Ni51   1.932       .  S
O43         Ni45   1.902       .  S
O43         Ni50   1.892       .  S
O44         Ni45   1.927       .  S
Ni45         O49   1.926       .  S
Ni45         O47   1.938       .  S
O46         Ni51   1.935   1_554  S
C48          O49   1.271       .  A
C48         C885   1.477       .  S
O53         Ni59   1.900       .  S
O53          C74   1.263       .  A
O54         Ni77   1.927       .  S
O54          C63   1.272       .  A
O55         Ni59   1.886       .  S
O55         Ni77   1.900       .  S
O55         Ni71   1.926       .  S
O55          H78   0.966       .  S
C56          O73   1.284       .  A
C56          O65   1.278       .  A
C56         C837   1.470       .  S
O57         Ni76   1.896       .  S
O57          C63   1.264       .  A
O58         Ni76   1.898       .  S
O58          C60   1.263       .  A
Ni59         O62   1.910       .  S
Ni59         O64   1.888       .  S
C60          O70   1.272       .  A
C60         C861   1.487       .  S
O61         Ni77   1.933       .  S
O61          C67   1.284       .  A
O62          C67   1.276       .  A
C63         C813   1.482       .  S
O64          C66   1.263       .  A
O65         Ni76   1.904       .  S
C66          O72   1.272       .  A
C66         C849   1.480       .  S
C67         C981   1.470       .  S
H68          O69   0.966       .  S
O69         Ni77   1.925       .  S
O69         Ni71   1.888       .  S
O69         Ni76   1.880       .  S
O70         Ni71   1.925       .  S
Ni71         O75   1.925       .  S
Ni71         O73   1.944       .  S
O72         Ni77   1.932       .  S
C74          O75   1.268       .  A
C74         C825   1.482       .  S
O79         Ni85   1.901       .  S
O79         C100   1.263       .  A
O80        Ni103   1.928       .  S
O80          C89   1.275       .  A
O81         Ni85   1.889       .  S
O81        Ni103   1.900       .  S
O81         Ni97   1.926       .  S
O81         H104   0.966       .  S
C82          O99   1.282       .  A
C82          O91   1.278       .  A
C82         C801   1.474       .  S
O83        Ni102   1.913       .  S
O83          C89   1.269       .  A
O84        Ni102   1.907       .  S
O84          C86   1.265       .  A
Ni85         O88   1.909       .  S
Ni85         O90   1.889       .  S
C86          O96   1.270       .  A
C86         C852   1.488       .  S
O87        Ni103   1.938       .  S
O87          C93   1.286       .  A
O88          C93   1.277       .  A
C89         C777   1.475       .  S
O90          C92   1.263       .  A
O91        Ni102   1.913       .  S
C92          O98   1.274       .  A
C92         C864   1.492       .  S
C93         C912   1.492       .  S
H94          O95   0.966       .  S
O95        Ni103   1.920       .  S
O95         Ni97   1.894       .  S
O95        Ni102   1.885       .  S
O96         Ni97   1.917       .  S
Ni97        O101   1.923       .  S
Ni97         O99   1.940       .  S
O98        Ni103   1.932       .  S
C100        O101   1.266       .  A
C100        C789   1.484       .  S
O105       Ni111   1.906       .  S
O105        C126   1.268       .  A
O106       Ni129   1.926       .  S
O106        C115   1.269       .  A
O107       Ni111   1.879       .  S
O107       Ni129   1.892       .  S
O107       Ni123   1.921       .  S
O107        H130   0.965       .  S
C108        O125   1.288       .  A
C108        O117   1.276       .  A
C108        C768   1.476       .  S
O109       Ni128   1.902       .  S
O109        C115   1.265       .  A
O110       Ni128   1.902       .  S
O110        C112   1.267       .  A
Ni111       O114   1.906       .  S
Ni111       O116   1.905       .  S
C112        O122   1.270       .  A
C112        C741   1.474       .  S
O113       Ni129   1.942       .  S
O113        C119   1.283       .  A
O114        C119   1.278       .  A
C115        C729   1.487       .  S
O116        C118   1.266       .  A
O117       Ni128   1.905       .  S
C118        O124   1.272       .  A
C118        C756   1.482       .  S
C119        C840   1.469       .  S
H120        O121   0.967       .  S
O121       Ni129   1.926       .  S
O121       Ni123   1.904       .  S
O121       Ni128   1.892       .  S
O122       Ni123   1.924       .  S
Ni123       O127   1.938       .  S
Ni123       O125   1.943       .  S
O124       Ni129   1.928       .  S
C126        O127   1.276       .  A
C126        C717   1.482       .  S
O131       Ni137   1.897       .  S
O131        C152   1.264       .  A
O132       Ni155   1.922       .  S
O132        C141   1.269       .  A
O133       Ni137   1.887       .  S
O133       Ni155   1.889       .  S
O133       Ni149   1.920       .  S
O133        H156   0.967       .  S
C134        O151   1.279       .  A
C134        O143   1.276       .  A
C134        C705   1.474       .  S
O135       Ni154   1.915       .  S
O135        C141   1.269       .  A
O136       Ni154   1.901       .  S
O136        C138   1.268       .  A
Ni137       O140   1.902       .  S
Ni137       O142   1.900       .  S
C138        O148   1.274       .  A
C138        C753   1.478       .  S
O139       Ni155   1.950       .  S
O139        C145   1.287       .  A
O140        C145   1.278       .  A
C141        C693   1.492       .  S
O142        C144   1.263       .  A
O143       Ni154   1.913       .  S
C144        O150   1.268       .  A
C144        C744   1.481       .  S
C145        C804   1.473       .  S
H146        O147   0.963       .  S
O147       Ni155   1.931       .  S
O147       Ni149   1.912       .  S
O147       Ni154   1.895       .  S
O148       Ni149   1.932       .  S
Ni149       O153   1.932       .  S
Ni149       O151   1.932       .  S
O150       Ni155   1.922       .  S
C152        O153   1.273       .  A
C152        C684   1.486       .  S
O157       Ni163   1.900       .  S
O157        C178   1.262       .  A
O158       Ni181   1.952       .  S
O158        C167   1.277       .  A
O159       Ni163   1.905       .  S
O159       Ni181   1.925       .  S
O159       Ni175   1.940       .  S
O159        H182   0.966       .  S
C160        O177   1.290       .  A
C160        O169   1.277       .  A
C160        C948   1.483       .  S
O161       Ni180   1.905       .  S
O161        C167   1.267       .  A
O162       Ni180   1.895       .  S
O162        C164   1.264       .  A
Ni163       O166   1.903       .  S
Ni163       O168   1.905       .  S
C164        O174   1.270       .  A
C164        C657   1.481       .  S
O165       Ni181   1.939       .  S
O165        C171   1.284       .  A
O166        C171   1.273       .  A
C167        C645   1.494       .  S
O168        C170   1.268       .  A
O169       Ni180   1.894       .  S
C170        O176   1.271       .  A
C170        C669   1.469       .  S
C171        C765   1.475       .  S
H172        O173   0.966       .  S
O173       Ni181   1.916       .  S
O173       Ni175   1.905       .  S
O173       Ni180   1.887       .  S
O174       Ni175   1.933       .  S
Ni175       O179   1.949       .  S
Ni175       O177   1.957       .  S
O176       Ni181   1.928       .  S
C178        O179   1.272       .  A
C178        C633   1.500       .  S
O183       Ni189   1.912   1_554  S
O183        C204   1.268   1_554  A
O184       Ni207   1.913       .  S
O184        C193   1.271       .  A
O185       Ni189   1.891       .  S
O185       Ni207   1.892       .  S
O185       Ni201   1.919       .  S
O185        H208   0.966       .  S
C186        O203   1.278       .  A
C186        O195   1.276       .  A
C186        C708   1.490       .  S
O187       Ni206   1.937       .  S
O187        C193   1.272       .  A
O188       Ni206   1.898       .  S
O188        C190   1.269       .  A
Ni189       O192   1.909       .  S
Ni189       O194   1.912   1_556  S
C190        O200   1.276       .  A
C190        C660   1.476       .  S
O191       Ni207   1.946       .  S
O191        C197   1.285       .  A
O192        C197   1.276       .  A
C193        C624   1.483       .  S
O194        C196   1.268       .  A
O195       Ni206   1.927       .  S
C196        O202   1.270       .  A
C196        C672   1.480       .  S
C197        C900   1.480       .  S
H198        O199   0.967       .  S
O199       Ni207   1.921       .  S
O199       Ni201   1.926       .  S
O199       Ni206   1.900       .  S
O200       Ni201   1.950       .  S
Ni201       O205   1.938       .  S
Ni201       O203   1.923       .  S
O202       Ni207   1.926   1_554  S
C204        O205   1.276       .  A
C204        C609   1.484       .  S
O209       Ni215   1.919   1_556  S
O209        C230   1.268       .  A
O210       Ni233   1.942       .  S
O210        C219   1.273       .  A
O211       Ni215   1.906   1_556  S
O211       Ni233   1.920       .  S
O211       Ni227   1.928       .  S
O211        H234   0.967       .  S
C212        O229   1.284       .  A
C212        O221   1.278       .  A
C212        C561   1.478       .  S
O213       Ni232   1.896       .  S
O213        C219   1.264       .  A
O214       Ni232   1.907       .  S
O214        C216   1.265       .  A
Ni215       O218   1.920       .  S
Ni215       O220   1.899       .  S
C216        O226   1.265       .  A
C216        C573   1.493       .  S
O217       Ni233   1.919       .  S
O217        C223   1.277   1_556  A
O218        C223   1.272       .  A
C219        C873   1.491       .  S
O220        C222   1.269       .  A
O221       Ni232   1.902       .  S
C222        O228   1.275       .  A
C222        C585   1.475       .  S
C223        C597   1.481       .  S
H224        O225   0.966   1_554  S
O225       Ni233   1.916       .  S
O225       Ni227   1.887       .  S
O225       Ni232   1.893       .  S
O226       Ni227   1.913       .  S
Ni227       O231   1.900       .  S
Ni227       O229   1.946       .  S
O228       Ni233   1.938   1_554  S
C230        O231   1.264       .  A
C230        C888   1.461       .  S
O235       Ni241   1.907       .  S
O235        C256   1.265       .  A
O236       Ni259   1.928       .  S
O236        C245   1.268       .  A
O237       Ni241   1.909       .  S
O237       Ni259   1.913       .  S
O237       Ni253   1.941       .  S
O237        H260   0.966       .  S
C238        O255   1.286       .  A
C238        O247   1.280       .  A
C238        C540   1.490       .  S
O239       Ni258   1.894       .  S
O239        C245   1.260       .  A
O240       Ni258   1.885       .  S
O240        C242   1.260       .  A
Ni241       O244   1.919       .  S
Ni241       O246   1.905       .  S
C242        O252   1.271       .  A
C242        C588   1.468       .  S
O243       Ni259   1.927       .  S
O243        C249   1.280       .  A
O244        C249   1.277       .  A
C245        C921   1.480       .  S
O246        C248   1.268       .  A
O247       Ni258   1.900       .  S
C248        O254   1.266       .  A
C248        C576   1.489       .  S
C249        C549   1.487       .  S
H250        O251   0.966       .  S
O251       Ni259   1.921       .  S
O251       Ni253   1.899       .  S
O251       Ni258   1.888       .  S
O252       Ni253   1.932       .  S
Ni253       O257   1.929       .  S
Ni253       O255   1.950       .  S
O254       Ni259   1.915       .  S
C256        O257   1.269       .  A
C256        C936   1.493       .  S
O261       Ni267   1.901       .  S
O261        C282   1.265       .  A
O262       Ni285   1.896       .  S
O262        C271   1.263       .  A
O263       Ni267   1.892       .  S
O263       Ni285   1.886       .  S
O263       Ni279   1.922       .  S
O263        H286   0.966       .  S
C264        O281   1.281       .  A
C264        O273   1.276       .  A
C264        C600   1.481       .  S
O265       Ni284   1.922       .  S
O265        C271   1.270       .  A
O266       Ni284   1.901       .  S
O266        C268   1.267       .  A
Ni267       O270   1.908       .  S
Ni267       O272   1.905       .  S
C268        O278   1.271       .  A
C268        C516   1.476       .  S
O269       Ni285   1.938       .  S
O269        C275   1.281       .  A
O270        C275   1.277       .  A
C271        C816   1.461       .  S
O272        C274   1.264       .  A
O273       Ni284   1.921       .  S
C274        O280   1.268       .  A
C274        C525   1.482       .  S
C275        C501   1.470       .  S
H276        O277   0.967       .  S
O277       Ni285   1.912       .  S
O277       Ni279   1.906       .  S
O277       Ni284   1.897       .  S
O278       Ni279   1.929       .  S
Ni279       O283   1.926       .  S
Ni279       O281   1.923       .  S
O280       Ni285   1.919       .  S
C282        O283   1.271       .  A
C282        C828   1.477       .  S
O287       Ni293   1.912       .  S
O287        C308   1.267       .  A
O288       Ni311   1.931       .  S
O288        C297   1.270       .  A
O289       Ni293   1.890       .  S
O289       Ni311   1.901       .  S
O289       Ni305   1.914       .  S
O289        H312   0.966       .  S
C290        O307   1.281       .  A
C290        O299   1.277       .  A
C290        C552   1.489       .  S
O291       Ni310   1.906       .  S
O291        C297   1.266       .  A
O292       Ni310   1.904       .  S
O292        C294   1.267       .  A
Ni293       O296   1.910       .  S
Ni293       O298   1.895       .  S
C294        O304   1.268       .  A
C294        C528   1.475       .  S
O295       Ni311   1.936       .  S
O295        C301   1.284       .  A
O296        C301   1.278       .  A
C297        C780   1.494       .  S
O298        C300   1.263       .  A
O299       Ni310   1.917       .  S
C300        O306   1.271       .  A
C300        C513   1.469       .  S
C301        C489   1.479       .  S
H302        O303   0.966       .  S
O303       Ni311   1.933       .  S
O303       Ni305   1.902       .  S
O303       Ni310   1.902       .  S
O304       Ni305   1.918       .  S
Ni305       O309   1.917       .  S
Ni305       O307   1.930       .  S
O306       Ni311   1.926       .  S
C308        O309   1.267       .  A
C308        C792   1.467       .  S
O313       Ni319   1.900       .  S
O313        C334   1.262       .  A
O314       Ni337   1.925       .  S
O314        C323   1.270       .  A
O315       Ni319   1.898       .  S
O315       Ni337   1.905       .  S
O315       Ni331   1.924       .  S
O315        H338   0.966       .  S
C316        O333   1.281       .  A
C316        O325   1.277       .  A
C316        C504   1.471       .  S
O317       Ni336   1.913       .  S
O317        C323   1.267       .  A
O318       Ni336   1.898       .  S
O318        C320   1.264       .  A
Ni319       O322   1.911       .  S
Ni319       O324   1.897       .  S
C320        O330   1.272       .  A
C320        C465   1.491       .  S
O321       Ni337   1.936       .  S
O321        C327   1.286       .  A
O322        C327   1.276       .  A
C323        C732   1.471       .  S
O324        C326   1.264       .  A
O325       Ni336   1.910       .  S
C326        O332   1.265       .  A
C326        C453   1.465   1_554  S
C327        C480   1.490       .  S
H328        O329   0.966       .  S
O329       Ni337   1.925       .  S
O329       Ni331   1.903       .  S
O329       Ni336   1.894       .  S
O330       Ni331   1.922       .  S
Ni331       O335   1.936       .  S
Ni331       O333   1.936       .  S
O332       Ni337   1.910       .  S
C334        O335   1.268       .  A
C334        C720   1.495       .  S
O339       Ni345   1.910       .  S
O339        C360   1.263       .  A
O340       Ni363   1.931       .  S
O340        C349   1.274       .  A
O341       Ni345   1.897       .  S
O341       Ni363   1.907       .  S
O341       Ni357   1.916       .  S
O341        H364   0.966       .  S
C342        O359   1.277       .  A
C342        O351   1.281       .  A
C342        C492   1.481       .  S
O343       Ni362   1.918       .  S
O343        C349   1.268       .  A
O344       Ni362   1.900       .  S
O344        C346   1.264       .  A
Ni345       O348   1.901       .  S
Ni345       O350   1.898       .  S
C346        O356   1.265       .  A
C346        C456   1.464       .  S
O347       Ni363   1.940       .  S
O347        C353   1.286       .  A
O348        C353   1.273       .  A
C349        C696   1.476       .  S
O350        C352   1.266       .  A
O351       Ni362   1.926       .  S
C352        O358   1.272       .  A
C352        C468   1.488       .  S
C353        C444   1.491       .  S
H354        O355   0.966       .  S
O355       Ni363   1.920       .  S
O355       Ni357   1.900       .  S
O355       Ni362   1.898       .  S
O356       Ni357   1.910       .  S
Ni357       O361   1.912       .  S
Ni357       O359   1.918       .  S
O358       Ni363   1.923       .  S
C360        O361   1.262       .  A
C360        C681   1.467       .  S
O365       Ni371   1.916       .  S
O365        C386   1.268       .  A
O366       Ni389   1.929       .  S
O366        C375   1.271       .  A
O367       Ni371   1.891       .  S
O367       Ni389   1.901       .  S
O367       Ni383   1.918       .  S
O367        H390   0.965   1_556  S
C368        O385   1.283       .  A
C368        O377   1.276       .  A
C368        C477   1.487       .  S
O369       Ni388   1.918       .  S
O369        C375   1.267   1_554  A
O370       Ni388   1.896       .  S
O370        C372   1.266       .  A
Ni371       O374   1.914       .  S
Ni371       O376   1.899       .  S
C372        O382   1.274       .  A
C372        C429   1.471       .  S
O373       Ni389   1.939       .  S
O373        C379   1.283       .  A
O374        C379   1.279       .  A
C375        C621   1.499       .  S
O376        C378   1.265       .  A
O377       Ni388   1.913       .  S
C378        O384   1.271       .  A
C378        C417   1.467       .  S
C379        C564   1.479       .  S
H380        O381   0.966       .  S
O381       Ni389   1.928       .  S
O381       Ni383   1.911       .  S
O381       Ni388   1.902   1_556  S
O382       Ni383   1.933   1_554  S
Ni383       O387   1.939       .  S
Ni383       O385   1.931   1_556  S
O384       Ni389   1.929       .  S
C386        O387   1.276       .  A
C386        C612   1.483       .  S
O391       Ni397   1.909       .  S
O391        C412   1.265       .  A
O392       Ni415   1.960       .  S
O392        C401   1.273       .  A
O393       Ni397   1.893       .  S
O393       Ni415   1.913       .  S
O393       Ni409   1.920       .  S
O393        H416   0.966       .  S
C394        O411   1.290       .  A
C394        O403   1.275       .  A
C394        C441   1.492       .  S
O395       Ni414   1.892       .  S
O395        C401   1.258       .  A
O396       Ni414   1.902       .  S
O396        C398   1.264       .  A
Ni397       O400   1.901       .  S
Ni397       O402   1.889       .  S
C398        O408   1.269       .  A
C398        C420   1.468       .  S
O399       Ni415   1.949       .  S
O399        C405   1.287       .  A
O400        C405   1.277       .  A
C401        C648   1.510       .  S
O402        C404   1.263       .  A
O403       Ni414   1.901       .  S
C404        O410   1.272       .  A
C404        C432   1.471       .  S
C405        C537   1.490       .  S
H406        O407   0.966       .  S
O407       Ni415   1.934       .  S
O407       Ni409   1.909       .  S
O407       Ni414   1.896       .  S
O408       Ni409   1.926       .  S
Ni409       O413   1.947       .  S
Ni409       O411   1.944       .  S
O410       Ni415   1.933       .  S
C412        O413   1.276       .  A
C412        C636   1.487       .  S
C417        C418   1.399       .  A
C417        C422   1.410       .  A
C418        C419   1.398       .  A
C418        H423   1.085       .  S
C419        C420   1.410       .  A
C419        C426   1.443       .  S
C420        C421   1.402       .  A
C421        C422   1.402       .  A
C421        H424   1.085       .  S
C422        C425   1.443       .  S
C425        N427   1.157       .  T
C426        N428   1.157       .  T
C429        C430   1.405       .  A
C429        C434   1.407       .  A
C430        C431   1.400       .  A
C430        H435   1.085       .  S
C431        C432   1.408       .  A
C431        C438   1.444       .  S
C432        C433   1.405       .  A
C433        C434   1.398       .  A
C433        H436   1.085       .  S
C434        C437   1.442       .  S
C437        N439   1.156       .  T
C438        N440   1.157       .  T
C441        C442   1.399       .  A
C441        C446   1.426       .  A
C442        C443   1.398       .  A
C442        H447   1.085       .  S
C443        C444   1.425       .  A
C443        C450   1.445       .  S
C444        C445   1.400       .  A
C445        C446   1.400       .  A
C445        H448   1.085       .  S
C446        C449   1.445       .  S
C449        N451   1.158       .  T
C450        N452   1.157       .  T
C453        C454   1.403       .  A
C453        C458   1.408       .  A
C454        C455   1.395       .  A
C454        H459   1.085       .  S
C455        C456   1.407       .  A
C455        C462   1.443       .  S
C456        C457   1.403       .  A
C457        C458   1.397       .  A
C457        H460   1.085       .  S
C458        C461   1.444       .  S
C461        N463   1.157   1_556  T
C462        N464   1.157       .  T
C465        C466   1.404       .  A
C465        C470   1.421       .  A
C466        C467   1.397       .  A
C466        H471   1.085       .  S
C467        C468   1.419       .  A
C467        C474   1.445       .  S
C468        C469   1.404       .  A
C469        C470   1.399       .  A
C469        H472   1.085       .  S
C470        C473   1.445       .  S
C473        N475   1.158       .  T
C474        N476   1.157       .  T
C477        C478   1.399       .  A
C477        C482   1.421       .  A
C478        C479   1.399       .  A
C478        H483   1.085   1_554  S
C479        C480   1.424       .  A
C479        C486   1.446       .  S
C480        C481   1.401       .  A
C481        C482   1.402       .  A
C481        H484   1.085       .  S
C482        C485   1.445       .  S
C485        N487   1.157       .  T
C486        N488   1.157       .  T
C489        C490   1.403       .  A
C489        C494   1.414       .  A
C490        C491   1.405   1_655  A
C490        H495   1.085       .  S
C491        C492   1.415       .  A
C491        C498   1.443       .  S
C492        C493   1.402       .  A
C493        C494   1.396   1_455  A
C493        H496   1.085       .  S
C494        C497   1.446       .  S
C497        N499   1.157       .  T
C498        N500   1.157       .  T
C501        C502   1.402       .  A
C501        C506   1.410       .  A
C502        C503   1.399   1_655  A
C502        H507   1.085       .  S
C503        C504   1.410       .  A
C503        C510   1.445       .  S
C504        C505   1.403       .  A
C505        C506   1.403   1_455  A
C505        H508   1.085       .  S
C506        C509   1.444       .  S
C509        N511   1.157       .  T
C510        N512   1.157       .  T
C513        C514   1.400       .  A
C513        C518   1.410       .  A
C514        C515   1.400       .  A
C514        H519   1.085       .  S
C515        C516   1.416   1_556  A
C515        C522   1.445       .  S
C516        C517   1.403   1_554  A
C517        C518   1.398       .  A
C517        H520   1.085       .  S
C518        C521   1.444       .  S
C521        N523   1.157       .  T
C522        N524   1.157   1_556  T
C525        C526   1.404       .  A
C525        C530   1.417       .  A
C526        C527   1.397       .  A
C526        H531   1.085       .  S
C527        C528   1.412       .  A
C527        C534   1.445       .  S
C528        C529   1.402       .  A
C529        C530   1.400       .  A
C529        H532   1.085       .  S
C530        C533   1.445       .  S
C533        N535   1.157       .  T
C534        N536   1.157       .  T
C537        C538   1.410       .  A
C537        C542   1.418       .  A
C538        C539   1.417       .  A
C538        H543   1.084       .  S
C539        C540   1.415       .  A
C539        C546   1.440       .  S
C540        C541   1.402       .  A
C541        C542   1.383       .  A
C541        H544   1.086       .  S
C542        C545   1.449       .  S
C545        N547   1.157       .  T
C546        N548   1.157       .  T
C549        C550   1.406       .  A
C549        C554   1.414       .  A
C550        C551   1.402       .  A
C550        H555   1.085       .  S
C551        C552   1.416       .  A
C551        C558   1.445       .  S
C552        C553   1.407       .  A
C553        C554   1.402       .  A
C553        H556   1.085       .  S
C554        C557   1.445       .  S
C557        N559   1.157       .  T
C558        N560   1.157       .  T
C561        C562   1.400       .  A
C561        C566   1.413       .  A
C562        C563   1.389       .  A
C562        H567   1.086       .  S
C563        C564   1.412       .  A
C563        C570   1.445   1_556  S
C564        C565   1.408       .  A
C565        C566   1.412       .  A
C565        H568   1.084       .  S
C566        C569   1.442       .  S
C569        N571   1.157       .  T
C570        N572   1.157       .  T
C573        C574   1.408       .  A
C573        C578   1.418       .  A
C574        C575   1.402       .  A
C574        H579   1.084       .  S
C575        C576   1.417       .  A
C575        C582   1.445       .  S
C576        C577   1.405       .  A
C577        C578   1.397       .  A
C577        H580   1.085       .  S
C578        C581   1.444       .  S
C581        N583   1.157       .  T
C582        N584   1.158       .  T
C585        C586   1.404       .  A
C585        C590   1.415       .  A
C586        C587   1.398       .  A
C586        H591   1.085       .  S
C587        C588   1.408       .  A
C587        C594   1.442       .  S
C588        C589   1.401       .  A
C589        C590   1.399       .  A
C589        H592   1.085       .  S
C590        C593   1.445       .  S
C593        N595   1.157       .  T
C594        N596   1.156       .  T
C597        C598   1.410       .  A
C597        C602   1.408       .  A
C598        C599   1.400       .  A
C598        H603   1.085       .  S
C599        C600   1.408       .  A
C599        C606   1.444       .  S
C600        C601   1.410       .  A
C601        C602   1.400       .  A
C601        H604   1.085       .  S
C602        C605   1.444   1_554  S
C605        N607   1.157       .  T
C606        N608   1.157       .  T
C609        C610   1.402       .  A
C609        C614   1.413       .  A
C610        C611   1.397       .  A
C610        H615   1.085       .  S
C611        C612   1.410       .  A
C611        C618   1.444       .  S
C612        C613   1.408       .  A
C613        C614   1.414       .  A
C613        H616   1.084       .  S
C614        C617   1.443       .  S
C617        N619   1.157       .  T
C618        N620   1.156       .  T
C621        C622   1.412   1_556  A
C621        C626   1.417       .  A
C622        C623   1.400   1_565  A
C622        H627   1.084       .  S
C623        C624   1.408   1_554  A
C623        C630   1.445       .  S
C624        C625   1.406       .  A
C625        C626   1.408   1_545  A
C625        H628   1.085       .  S
C626        C629   1.444       .  S
C629        N631   1.158       .  T
C630        N632   1.157       .  T
C633        C634   1.407       .  A
C633        C638   1.421       .  A
C634        C635   1.413       .  A
C634        H639   1.084       .  S
C635        C636   1.415       .  A
C635        C642   1.443       .  S
C636        C637   1.399       .  A
C637        C638   1.403       .  A
C637        H640   1.085       .  S
C638        C641   1.445       .  S
C641        N643   1.157       .  T
C642        N644   1.157       .  T
C645        C646   1.399       .  A
C645        C650   1.415       .  A
C646        C647   1.398   1_545  A
C646        H651   1.086       .  S
C647        C648   1.426       .  A
C647        C654   1.446       .  S
C648        C649   1.412       .  A
C649        C650   1.418   1_565  A
C649        H652   1.084       .  S
C650        C653   1.442       .  S
C653        N655   1.157       .  T
C654        N656   1.158       .  T
C657        C658   1.406       .  A
C657        C662   1.412       .  A
C658        C659   1.397       .  A
C658        H663   1.085       .  S
C659        C660   1.408       .  A
C659        C666   1.445       .  S
C660        C661   1.406       .  A
C661        C662   1.406       .  A
C661        H664   1.085       .  S
C662        C665   1.444       .  S
C665        N667   1.157       .  T
C666        N668   1.157       .  T
C669        C670   1.403       .  A
C669        C674   1.406       .  A
C670        C671   1.403       .  A
C670        H675   1.085       .  S
C671        C672   1.413       .  A
C671        C678   1.444       .  S
C672        C673   1.406       .  A
C673        C674   1.400       .  A
C673        H676   1.085       .  S
C674        C677   1.444       .  S
C677        N679   1.157       .  T
C678        N680   1.157       .  T
C681        C682   1.405       .  A
C681        C686   1.403       .  A
C682        C683   1.406       .  A
C682        H687   1.085       .  S
C683        C684   1.414       .  A
C683        C690   1.443       .  S
C684        C685   1.410       .  A
C685        C686   1.391       .  A
C685        H688   1.085       .  S
C686        C689   1.446       .  S
C689        N691   1.157       .  T
C690        N692   1.157       .  T
C693        C694   1.408   1_545  A
C693        C698   1.417   1_545  A
C694        C695   1.397       .  A
C694        H699   1.085   1_565  S
C695        C696   1.407       .  A
C695        C702   1.444       .  S
C696        C697   1.405       .  A
C697        C698   1.409       .  A
C697        H700   1.085       .  S
C698        C701   1.443   1_565  S
C701        N703   1.157       .  T
C702        N704   1.157       .  T
C705        C706   1.397       .  A
C705        C710   1.412       .  A
C706        C707   1.395       .  A
C706        H711   1.086       .  S
C707        C708   1.421       .  A
C707        C714   1.446       .  S
C708        C709   1.407       .  A
C709        C710   1.408       .  A
C709        H712   1.084       .  S
C710        C713   1.444       .  S
C713        N715   1.157       .  T
C714        N716   1.157       .  T
C717        C718   1.407       .  A
C717        C722   1.410       .  A
C718        C719   1.413       .  A
C718        H723   1.084       .  S
C719        C720   1.418       .  A
C719        C726   1.443       .  S
C720        C721   1.408       .  A
C721        C722   1.391       .  A
C721        H724   1.085       .  S
C722        C725   1.447       .  S
C725        N727   1.157       .  T
C726        N728   1.157       .  T
C729        C730   1.408   1_545  A
C729        C734   1.414   1_545  A
C730        C731   1.394       .  A
C730        H735   1.085   1_565  S
C731        C732   1.405       .  A
C731        C738   1.445       .  S
C732        C733   1.405       .  A
C733        C734   1.407       .  A
C733        H736   1.085       .  S
C734        C737   1.443   1_565  S
C737        N739   1.157       .  T
C738        N740   1.157       .  T
C741        C742   1.403       .  A
C741        C746   1.409       .  A
C742        C743   1.398       .  A
C742        H747   1.085       .  S
C743        C744   1.413       .  A
C743        C750   1.444       .  S
C744        C745   1.407       .  A
C745        C746   1.400       .  A
C745        H748   1.085       .  S
C746        C749   1.444       .  S
C749        N751   1.157       .  T
C750        N752   1.157       .  T
C753        C754   1.402       .  A
C753        C758   1.414       .  A
C754        C755   1.402       .  A
C754        H759   1.085       .  S
C755        C756   1.417   1_556  A
C755        C762   1.444       .  S
C756        C757   1.402       .  A
C757        C758   1.399   1_554  A
C757        H760   1.085       .  S
C758        C761   1.445       .  S
C761        N763   1.157       .  T
C762        N764   1.157   1_556  T
C765        C766   1.402       .  A
C765        C770   1.413       .  A
C766        C767   1.401       .  A
C766        H771   1.085       .  S
C767        C768   1.414       .  A
C767        C774   1.444       .  S
C768        C769   1.402       .  A
C769        C770   1.402       .  A
C769        H772   1.085       .  S
C770        C773   1.444       .  S
C773        N775   1.157       .  T
C774        N776   1.157       .  T
C777        C778   1.403       .  A
C777        C782   1.408       .  A
C778        C779   1.408       .  A
C778        H783   1.085       .  S
C779        C780   1.418       .  A
C779        C786   1.440       .  S
C780        C781   1.409       .  A
C781        C782   1.394       .  A
C781        H784   1.084       .  S
C782        C785   1.446       .  S
C785        N787   1.157       .  T
C786        N788   1.156       .  T
C789        C790   1.407   1_545  A
C789        C794   1.415   1_545  A
C790        C791   1.390       .  A
C790        H795   1.085   1_565  S
C791        C792   1.406       .  A
C791        C798   1.446       .  S
C792        C793   1.404       .  A
C793        C794   1.407       .  A
C793        H796   1.085       .  S
C794        C797   1.443   1_565  S
C797        N799   1.157       .  T
C798        N800   1.157       .  T
C801        C802   1.400       .  A
C801        C806   1.411       .  A
C802        C803   1.393   1_655  A
C802        H807   1.086       .  S
C803        C804   1.411       .  A
C803        C810   1.447       .  S
C804        C805   1.406       .  A
C805        C806   1.410   1_455  A
C805        H808   1.084       .  S
C806        C809   1.443       .  S
C809        N811   1.157       .  T
C810        N812   1.157       .  T
C813        C814   1.410       .  A
C813        C818   1.414       .  A
C814        C815   1.389       .  A
C814        H819   1.085       .  S
C815        C816   1.402       .  A
C815        C822   1.446       .  S
C816        C817   1.404       .  A
C817        C818   1.404       .  A
C817        H820   1.085       .  S
C818        C821   1.443       .  S
C821        N823   1.157       .  T
C822        N824   1.157       .  T
C825        C826   1.405   1_545  A
C825        C830   1.414   1_545  A
C826        C827   1.386       .  A
C826        H831   1.085       .  S
C827        C828   1.412       .  A
C827        C834   1.447       .  S
C828        C829   1.407       .  A
C829        C830   1.408       .  A
C829        H832   1.085       .  S
C830        C833   1.442   1_565  S
C833        N835   1.157       .  T
C834        N836   1.157       .  T
C837        C838   1.405       .  A
C837        C842   1.410       .  A
C838        C839   1.408   1_655  A
C838        H843   1.084       .  S
C839        C840   1.410       .  A
C839        C846   1.443       .  S
C840        C841   1.400       .  A
C841        C842   1.393   1_455  A
C841        H844   1.086       .  S
C842        C845   1.446       .  S
C845        N847   1.157       .  T
C846        N848   1.157       .  T
C849        C850   1.402       .  A
C849        C854   1.415       .  A
C850        C851   1.403       .  A
C850        H855   1.085       .  S
C851        C852   1.420       .  A
C851        C858   1.444       .  S
C852        C853   1.404       .  A
C853        C854   1.395       .  A
C853        H856   1.085       .  S
C854        C857   1.446       .  S
C857        N859   1.157       .  T
C858        N860   1.157       .  T
C861        C862   1.401       .  A
C861        C866   1.418   1_554  A
C862        C863   1.396   1_554  A
C862        H867   1.084       .  S
C863        C864   1.422       .  A
C863        C870   1.446       .  S
C864        C865   1.406       .  A
C865        C866   1.400       .  A
C865        H868   1.085       .  S
C866        C869   1.445   1_556  S
C869        N871   1.158       .  T
C870        N872   1.158       .  T
C873        C874   1.404       .  A
C873        C878   1.416   1_556  A
C874        C875   1.389       .  A
C874        H879   1.085       .  S
C875        C876   1.416       .  A
C875        C882   1.448       .  S
C876        C877   1.409   1_556  A
C877        C878   1.413       .  A
C877        H880   1.084       .  S
C878        C881   1.442       .  S
C881        N883   1.157       .  T
C882        N884   1.158       .  T
C885        C886   1.409       .  A
C885        C890   1.410       .  A
C886        C887   1.395   1_545  A
C886        H891   1.085       .  S
C887        C888   1.402       .  A
C887        C894   1.445       .  S
C888        C889   1.404       .  A
C889        C890   1.401   1_565  A
C889        H892   1.084       .  S
C890        C893   1.443       .  S
C893        N895   1.157       .  T
C894        N896   1.157   1_556  T
C897        C898   1.401       .  A
C897        C902   1.416   1_556  A
C898        C899   1.401       .  A
C898        H903   1.085       .  S
C899        C900   1.414       .  A
C899        C906   1.445       .  S
C900        C901   1.402   1_556  A
C901        C902   1.403       .  A
C901        H904   1.085       .  S
C902        C905   1.445       .  S
C905        N907   1.157       .  T
C906        N908   1.157       .  T
C909        C910   1.413       .  A
C909        C914   1.410       .  A
C910        C911   1.402       .  A
C910        H915   1.084       .  S
C911        C912   1.410       .  A
C911        C918   1.444       .  S
C912        C913   1.413       .  A
C913        C914   1.401       .  A
C913        H916   1.085       .  S
C914        C917   1.444       .  S
C917        N919   1.157       .  T
C918        N920   1.157       .  T
C921        C922   1.404       .  A
C921        C926   1.420       .  A
C922        C923   1.403       .  A
C922        H927   1.084       .  S
C923        C924   1.409       .  A
C923        C930   1.444       .  S
C924        C925   1.394       .  A
C925        C926   1.393       .  A
C925        H928   1.086       .  S
C926        C929   1.446       .  S
C929        N931   1.157       .  T
C930        N932   1.157       .  T
C933        C934   1.402       .  A
C933        C938   1.406       .  A
C934        C935   1.407   1_545  A
C934        H939   1.085       .  S
C935        C936   1.417       .  A
C935        C942   1.440       .  S
C936        C937   1.409       .  A
C937        C938   1.395   1_565  A
C937        H940   1.084       .  S
C938        C941   1.445       .  S
C941        N943   1.157       .  T
C942        N944   1.156       .  T
C945        C946   1.401       .  A
C945        C950   1.418       .  A
C946        C947   1.387       .  A
C946        H951   1.086       .  S
C947        C948   1.416       .  A
C947        C954   1.448       .  S
C948        C949   1.405       .  A
C949        C950   1.414       .  A
C949        H952   1.084       .  S
C950        C953   1.440       .  S
C953        N955   1.157       .  T
C954        N956   1.157       .  T
C957        C958   1.405       .  A
C957        C962   1.409       .  A
C958        C959   1.403       .  A
C958        H963   1.085       .  S
C959        C960   1.411       .  A
C959        C966   1.444       .  S
C960        C961   1.402       .  A
C961        C962   1.397       .  A
C961        H964   1.085       .  S
C962        C965   1.441       .  S
C965        N967   1.156       .  T
C966        N968   1.157       .  T
C969        C970   1.402       .  A
C969        C974   1.418       .  A
C970        C971   1.401       .  A
C970        H975   1.085       .  S
C971        C972   1.424       .  A
C971        C978   1.445       .  S
C972        C973   1.406       .  A
C973        C974   1.401       .  A
C973        H976   1.085       .  S
C974        C977   1.445       .  S
C977        N979   1.157       .  T
C978        N980   1.158       .  T
C981        C982   1.406       .  A
C981        C986   1.405       .  A
C982        C983   1.398       .  A
C982        H987   1.084       .  S
C983        C984   1.407       .  A
C983        C990   1.444       .  S
C984        C985   1.410       .  A
C985        C986   1.401       .  A
C985        H988   1.085       .  S
C986        C989   1.443       .  S
C989        N991   1.157       .  T
C990        N992   1.157       .  T
