geometry optimzed in LAMMPS
_audit_creation_date              2020-11-30 
_audit_creation_method            'lammps2cif' 
_symmetry_space_group_name_H-M    'P1' 
_symmetry_Int_Tables_number       1 
_symmetry_cell_setting            triclinic 
loop_ 
_symmetry_equiv_pos_as_xyz 
  x,y,z 
_cell_length_a                    41.01756955618505 
_cell_length_b                    40.535615083540065 
_cell_length_c                    40.726587547028586 
_cell_angle_alpha                 89.87808480627915 
_cell_angle_beta                  89.74855578777145 
_cell_angle_gamma                 90.23290639083403 
loop_ 
_atom_site_label 
_atom_site_type_symbol 
_atom_site_fract_x 
_atom_site_fract_y 
_atom_site_fract_z 
_atom_site_charge 
O1          O  0.17354968  0.70025381  0.45126949    -0.82940
C2          C  0.10345607  0.69569052  0.34148240     0.96420
O3          O  0.13324724  0.70099049  0.34753598    -0.72050
O4          O  0.17902444  0.72253616  0.38725072    -0.75650
Al5        Al  0.15877190  0.68109053  0.38035372     1.48980
C6          C  0.17152985  0.74958746  0.39996634     0.91670
O7          O  0.08451429  0.72777404  0.44252214    -0.81870
O8          O  0.09031632  0.64296966  0.44872356    -0.75420
Al9        Al  0.12977348  0.71287223  0.44305356     1.90120
O10         O  0.06128745  0.69039181  0.41187567    -0.74490
O11         O  0.11414372  0.61986713  0.39635077    -0.74340
O12         O  0.08730316  0.67352424  0.35728799    -0.80000
O13         O  0.15175199  0.63662016  0.36356305    -0.78210
O14         O  0.12617859  0.68472627  0.40924021    -1.14340
O15         O  0.18449429  0.66280803  0.41307377    -0.73540
C16         C  0.19045310  0.67660939  0.44024150     0.97180
C17         C  0.05903113  0.71356935  0.43157965     0.93580
Al18       Al  0.09153543  0.65898809  0.40356478     1.55560
O19         O  0.14551901  0.75120174  0.41719762    -0.78160
C20         C  0.13686200  0.61324443  0.37741349     0.97750
C21         C  0.10220092  0.65453249  0.47499290     0.92630
O22         O  0.11780211  0.68124242  0.47473419    -0.83480
O23         O  0.31412065  0.69061847  0.50522943    -0.82940
C24         C  0.37737176  0.69802708  0.61565656     0.96420
O25         O  0.34773225  0.69867002  0.60714563    -0.72050
O26         O  0.30071481  0.71136017  0.56508609    -0.75650
Al27       Al  0.32721229  0.67383038  0.57522366     1.48980
C28         C  0.30730227  0.74028511  0.55632921     0.91670
O29         O  0.39900486  0.73109879  0.51908781    -0.81870
O30         O  0.39966322  0.64309971  0.50976110    -0.75420
Al31       Al  0.35559862  0.71018479  0.51596758     1.90120
O32         O  0.42475614  0.69240637  0.54565492    -0.74490
O33         O  0.37706241  0.61826061  0.56286512    -0.74340
O34         O  0.39747319  0.67769050  0.60164198    -0.80000
O35         O  0.34005257  0.63285459  0.59623526    -0.78210
O36         O  0.36055778  0.68158487  0.54838398    -1.14340
O37         O  0.30700386  0.64985458  0.54168662    -0.73540
C38         C  0.30057530  0.66356662  0.51441669     0.97180
C39         C  0.42547370  0.71726670  0.52793801     0.93580
Al40       Al  0.39662685  0.65959892  0.55519951     1.55560
O41         O  0.33520034  0.74491748  0.54315489    -0.78160
C42         C  0.35566267  0.61004784  0.58278545     0.97750
C43         C  0.38958329  0.65656271  0.48338318     0.92630
O44         O  0.37250068  0.68211570  0.48459200    -0.83480
O45         O  0.20063686  0.94798960  0.66315644    -0.82940
C46         C  0.20848915  0.84405575  0.58287969     0.96420
O47         O  0.20849202  0.84888494  0.61354817    -0.72050
O48         O  0.22232372  0.88596768  0.66516491    -0.75650
Al49       Al  0.18448654  0.88027427  0.63774965     1.48980
C50         C  0.25034236  0.89807105  0.66071955     0.91670
O51         O  0.24182422  0.95172224  0.57877753    -0.81870
O52         O  0.16359480  0.95631897  0.56712302    -0.75420
Al53       Al  0.21984295  0.94507676  0.62052446     1.90120
O54         O  0.21429116  0.91917494  0.54620037    -0.74490
O55         O  0.13375530  0.90232025  0.58391120    -0.74340
O56         O  0.19101176  0.86233677  0.56389763    -0.80000
O57         O  0.14279226  0.86519226  0.62059163    -0.78210
O58         O  0.19401197  0.91192839  0.60839886    -1.14340
O59         O  0.16095475  0.91073216  0.66329887    -0.73540
C60         C  0.17375796  0.93691532  0.67420367     0.97180
C61         C  0.23483185  0.94155941  0.55033696     0.93580
Al62       Al  0.17682869  0.90961607  0.56864922     1.55560
O63         O  0.25454825  0.91635919  0.63571055    -0.78160
C64         C  0.12288383  0.88235709  0.60457533     0.97750
C65         C  0.17085917  0.98086590  0.58524273     0.92630
O66         O  0.19004620  0.97719456  0.60882099    -0.83480
O67         O  0.21037923  0.00381433  0.79587264    -0.82940
C68         C  0.21521678  0.11660375  0.86250584     0.96420
O69         O  0.21818446  0.10862174  0.83248728    -0.72050
O70         O  0.23318470  0.06498567  0.78592732    -0.75650
Al71       Al  0.19456478  0.07501716  0.81031461     1.48980
C72         C  0.26038740  0.05303500  0.79333927     0.91670
O73         O  0.24461468  0.01371259  0.88296107    -0.81870
O74         O  0.16093905  0.01023433  0.88336754    -0.75420
Al75       Al  0.22668073  0.01295177  0.83884655     1.90120
O76         O  0.21061356  0.04669069  0.90799637    -0.74490
O77         O  0.13800927  0.06206530  0.85978231    -0.74340
O78         O  0.19451615  0.10158559  0.88129453    -0.80000
O79         O  0.15274161  0.09434202  0.82160145    -0.78210
O80         O  0.20034329  0.04755637  0.84378510    -1.14340
O81         O  0.17178328  0.04112397  0.78888978    -0.73540
C82         C  0.18374284  0.01295368  0.78294612     0.97180
C83         C  0.23261326  0.02584427  0.90907014     0.93580
Al84       Al  0.17794891  0.05509987  0.87998504     1.55560
O85         O  0.26327235  0.03855177  0.82096347    -0.78160
C86         C  0.12998474  0.08047181  0.83712687     0.97750
C87         C  0.17045923  0.98344575  0.87053022     0.92630
O88         O  0.19569699  0.98250784  0.85319730    -0.83480
O89         O  0.46588306  0.16497478  0.69361712    -0.82940
C90         C  0.35826947  0.09082086  0.69451009     0.96420
O91         O  0.36177411  0.12206399  0.69444457    -0.72050
O92         O  0.39937903  0.17210895  0.71388065    -0.75650
Al93       Al  0.39507142  0.14854265  0.67434251     1.48980
C94         C  0.41199707  0.16799256  0.74140636     0.91670
O95         O  0.45234736  0.08101236  0.73219706    -0.81870
O96         O  0.46509066  0.08216114  0.64117385    -0.75420
Al97       Al  0.45580891  0.12318655  0.71111015     1.90120
O98         O  0.43500851  0.05244495  0.69038857    -0.74490
O99         O  0.40931129  0.09692115  0.61739761    -0.74340
O100        O  0.37629278  0.07238391  0.67628740    -0.80000
O101        O  0.38140383  0.13966208  0.62977994    -0.78210
O102        O  0.42411390  0.11682082  0.68143203    -1.14340
O103        O  0.42789184  0.17495276  0.65631756    -0.73540
C104        C  0.45556910  0.18058758  0.66887508     0.97180
C105        C  0.44862131  0.05386714  0.71746703     0.93580
Al106      Al  0.42089333  0.07951394  0.65843860     1.55560
O107        O  0.42987484  0.14307750  0.74554140    -0.78160
C108        C  0.39328364  0.12106909  0.60832951     0.97750
C109        C  0.49031531  0.09160770  0.65654363     0.92630
O110        O  0.48771506  0.10629921  0.68352353    -0.83480
O111        O  0.52545524  0.29847297  0.68863849    -0.82940
C112        C  0.63490867  0.36159178  0.69886293     0.96420
O113        O  0.62689983  0.33145682  0.70062703    -0.72050
O114        O  0.58400636  0.28242550  0.71073989    -0.75650
Al115      Al  0.59577973  0.31146385  0.67445540     1.48980
C116        C  0.57449761  0.28938543  0.73924243     0.91670
O117        O  0.54249066  0.38282373  0.73294956    -0.81870
O118        O  0.52934297  0.38573616  0.64469001    -0.75420
Al119      Al  0.53694134  0.33956135  0.71051424     1.90120
O120        O  0.56653292  0.40885195  0.69247712    -0.74490
O121        O  0.58178656  0.36129026  0.61923897    -0.74340
O122        O  0.62157822  0.38133233  0.67743217    -0.80000
O123        O  0.61758050  0.32637379  0.63424091    -0.78210
O124        O  0.56885546  0.34492018  0.68214498    -1.14340
O125        O  0.56344848  0.29270756  0.64920336    -0.73540
C126        C  0.53578757  0.28607940  0.66144197     0.97180
C127        C  0.55347452  0.40934241  0.71981205     0.93580
Al128      Al  0.57503808  0.38145817  0.65995778     1.55560
O129        O  0.56296689  0.31789494  0.74421151    -0.78160
C130        C  0.60289953  0.34099491  0.61144509     0.97750
C131        C  0.50355142  0.37508844  0.65888865     0.92630
O132        O  0.50627288  0.35766264  0.68384545    -0.83480
O133        O  0.67481732  0.19241709  0.94752744    -0.82940
C134        C  0.60559733  0.18987862  0.83790354     0.96420
O135        O  0.63593735  0.19362166  0.84252457    -0.72050
O136        O  0.68477040  0.21486035  0.87985822    -0.75650
Al137      Al  0.66162617  0.17408729  0.87498987     1.48980
C138        C  0.68019936  0.24244729  0.89286589     0.91670
O139        O  0.58926152  0.22987934  0.92731591    -0.81870
O140        O  0.59589872  0.13840933  0.94650608    -0.75420
Al141      Al  0.63316613  0.21015019  0.93575612     1.90120
O142        O  0.56663439  0.18428972  0.91126219    -0.74490
O143        O  0.61658277  0.11439916  0.89356171    -0.74340
O144        O  0.58913997  0.16836338  0.85456584    -0.80000
O145        O  0.65327728  0.12932186  0.85911978    -0.78210
O146        O  0.62982929  0.17961183  0.90429842    -1.14340
O147        O  0.68674831  0.15619188  0.90764424    -0.73540
C148        C  0.69208229  0.16924513  0.93529501     0.97180
C149        C  0.56376533  0.21327557  0.91960244     0.93580
Al150      Al  0.59523933  0.15354520  0.90122336     1.55560
O151        O  0.65509225  0.24568565  0.91085625    -0.78160
C152        C  0.63816157  0.10670139  0.87392976     0.97750
C153        C  0.60251754  0.15495930  0.97193894     0.92630
O154        O  0.61522736  0.18313313  0.96911659    -0.83480
O155        O  0.81616458  0.19568909  0.00245904    -0.82940
C156        C  0.87852975  0.19938781  0.11591900     0.96420
O157        O  0.84946023  0.20434662  0.10669268    -0.72050
O158        O  0.80553817  0.21935907  0.06189224    -0.75650
Al159      Al  0.82769435  0.17987417  0.07352248     1.48980
C160        C  0.81275195  0.24623205  0.04813798     0.91670
O161        O  0.90485849  0.22518974  0.01220628    -0.81870
O162        O  0.90573792  0.14706922  0.01135137    -0.75420
Al163      Al  0.85897158  0.21003929  0.01140056     1.90120
O164        O  0.92403483  0.19807998  0.05399128    -0.74490
O165        O  0.87537262  0.12202116  0.05973353    -0.74340
O166        O  0.89491889  0.17547190  0.10358416    -0.80000
O167        O  0.83852823  0.13733777  0.09357727    -0.78210
O168        O  0.86170464  0.18479933  0.04705435    -1.14340
O169        O  0.80631061  0.15674995  0.03946247    -0.73540
C170        C  0.80190472  0.16928682  0.01117972     0.97180
C171        C  0.92905460  0.21441426  0.02871760     0.93580
Al172      Al  0.89693248  0.16244692  0.05668599     1.55560
O173        O  0.84082789  0.24881109  0.03429103    -0.78160
C174        C  0.85374920  0.11424826  0.07966472     0.97750
C175        C  0.89139054  0.15320281  0.98444544     0.92630
O176        O  0.87164689  0.17650847  0.98282922    -0.83480
O177        O  0.71142768  0.45173809  0.15368603    -0.82940
C178        C  0.71097059  0.34358546  0.07953981     0.96420
O179        O  0.70265343  0.34096658  0.10984382    -0.72050
O180        O  0.73917260  0.37183311  0.15367902    -0.75650
Al181      Al  0.69476014  0.37588220  0.14214581     1.48980
C182        C  0.76242527  0.39199039  0.15423163     0.91670
O183        O  0.74338710  0.43074115  0.06922464    -0.81870
O184        O  0.64847732  0.44316784  0.09074058    -0.75420
Al185      Al  0.72609452  0.43968369  0.11319316     1.90120
O186        O  0.69516033  0.43182128  0.04904937    -0.74490
O187        O  0.63835482  0.37534172  0.09117550    -0.74340
O188        O  0.69930556  0.36679963  0.06174806    -0.80000
O189        O  0.64849899  0.37553009  0.14220220    -0.78210
O190        O  0.69822451  0.40652371  0.11150504    -1.14340
O191        O  0.68905399  0.40692308  0.17560447    -0.73540
C192        C  0.69808162  0.43662744  0.17709152     0.97180
C193        C  0.72476199  0.43133856  0.04430599     0.93580
Al194      Al  0.67263773  0.40390073  0.07667459     1.55560
O195        O  0.76235268  0.41630035  0.13436058    -0.78160
C196        C  0.62792284  0.37397267  0.11985018     0.97750
C197        C  0.66393777  0.47070851  0.09391658     0.92630
O198        O  0.69483586  0.47131301  0.09707890    -0.83480
O199        O  0.71658465  0.51383143  0.30715704    -0.82940
C200        C  0.70821413  0.62780562  0.36649805     0.96420
O201        O  0.70808636  0.62224992  0.33566743    -0.72050
O202        O  0.73463948  0.58296218  0.29177863    -0.75650
Al203      Al  0.69342874  0.58537611  0.31079846     1.48980
C204        C  0.76170086  0.57123480  0.29845885     0.91670
O205        O  0.74683783  0.53963896  0.38777275    -0.81870
O206        O  0.65567425  0.51916782  0.37721378    -0.75420
Al207      Al  0.72999859  0.52935412  0.34611702     1.90120
O208        O  0.70087833  0.54999979  0.41150259    -0.74490
O209        O  0.63418075  0.57712291  0.36032736    -0.74340
O210        O  0.69159628  0.60947677  0.38647523    -0.80000
O211        O  0.64910005  0.59704414  0.31418891    -0.78210
O212        O  0.69871518  0.55959068  0.34582804    -1.14340
O213        O  0.68070683  0.54806145  0.28501271    -0.73540
C214        C  0.69641991  0.52099876  0.28540388     0.99100
C215        C  0.72887421  0.53894203  0.41288003     0.93580
Al216      Al  0.67292382  0.56446564  0.38054562     1.55560
O217        O  0.76464191  0.55565177  0.32531712    -0.78160
C218        C  0.62683078  0.58932770  0.33350773     0.97750
C219        C  0.67321253  0.49347515  0.37306487     0.92630
O220        O  0.70251636  0.49641080  0.36397009    -0.83480
O221        O  0.97164471  0.66566448  0.19015079    -0.82940
C222        C  0.86226850  0.59743897  0.19885272     0.96420
O223        O  0.86940302  0.62763466  0.20250213    -0.72050
O224        O  0.91017673  0.67790405  0.21498969    -0.75650
Al225      Al  0.90030429  0.65069680  0.17746625     1.48980
C226        C  0.92253825  0.67195881  0.24251388     0.91670
O227        O  0.95597841  0.57957493  0.23383018    -0.81870
O228        O  0.96899742  0.57723986  0.14637261    -0.75420
Al229      Al  0.96127120  0.62353468  0.21165868     1.90120
O230        O  0.93046344  0.55468322  0.19402564    -0.74490
O231        O  0.91792516  0.60314467  0.12066596    -0.74340
O232        O  0.87638892  0.57993290  0.17630533    -0.80000
O233        O  0.88082990  0.63703532  0.13580412    -0.78210
O234        O  0.92877440  0.61809127  0.18380680    -1.14340
O235        O  0.93160218  0.67287441  0.15364555    -0.73540
C236        C  0.95970878  0.67950646  0.16436296     0.97180
C237        C  0.94363336  0.55341437  0.22124025     0.93580
Al238      Al  0.92332018  0.58171053  0.16094512     1.55560
O239        O  0.93617784  0.64433630  0.24642876    -0.78160
C240        C  0.89718257  0.62392978  0.11307647     0.97750
C241        C  0.99488997  0.58790948  0.15977935     0.92630
O242        O  0.99256725  0.60601337  0.18438440    -0.83480
O243        O  0.01954260  0.80146943  0.18902305    -0.82940
C244        C  0.12912371  0.86615248  0.20428656     0.96420
O245        O  0.12080189  0.83615952  0.20647136    -0.72050
O246        O  0.07854054  0.78711495  0.21502876    -0.75650
Al247      Al  0.09109205  0.81547771  0.17921058     1.48980
C248        C  0.06654840  0.79298974  0.24279653     0.91670
O249        O  0.03430404  0.88638687  0.23528717    -0.81870
O250        O  0.02526523  0.89027619  0.14682172    -0.75420
Al251      Al  0.02962787  0.84285761  0.21200217     1.90120
O252        O  0.06166201  0.91187198  0.19662691    -0.74490
O253        O  0.07810105  0.86432135  0.12299245    -0.74340
O254        O  0.11652771  0.88542180  0.18210712    -0.80000
O255        O  0.11410812  0.83087468  0.14000724    -0.78210
O256        O  0.06324569  0.84850612  0.18549463    -1.14340
O257        O  0.06040467  0.79545578  0.15278625    -0.73540
C258        C  0.03192002  0.78865038  0.16281813     0.97180
C259        C  0.04713243  0.91272267  0.22330609     0.93580
Al260      Al  0.07043143  0.88513484  0.16362868     1.55560
O261        O  0.05330848  0.82079987  0.24699334    -0.78160
C262        C  0.10005257  0.84445326  0.11622051     0.97750
C263        C  0.99872736  0.87956863  0.15941955     0.92630
O264        O  0.00005089  0.86131296  0.18399818    -0.83480
O265        O  0.26408610  0.94839198  0.31215014    -0.82940
C266        C  0.28393269  0.83749878  0.37016706     0.96420
O267        O  0.29339290  0.84004974  0.34016473    -0.72050
O268        O  0.25578124  0.87493211  0.29993108    -0.75650
Al269      Al  0.29862513  0.88030793  0.31431747     1.48980
C270        C  0.22796918  0.88524780  0.30677263     0.91670
O271        O  0.24371133  0.91627709  0.39799956    -0.81870
O272        O  0.33373525  0.94458216  0.37209828    -0.75420
Al273      Al  0.25630047  0.93029489  0.35318081     1.90120
O274        O  0.29337680  0.91958152  0.41462393    -0.74490
O275        O  0.35610804  0.88022235  0.36567752    -0.74340
O276        O  0.29566440  0.85761913  0.39164432    -0.80000
O277        O  0.34499618  0.88278445  0.31489431    -0.78210
O278        O  0.29030808  0.90376432  0.34937601    -1.14340
O279        O  0.30228503  0.91804269  0.28835480    -0.73540
C280        C  0.28439460  0.94327544  0.28952946     0.97180
C281        C  0.26403069  0.92072377  0.42110900     0.93580
Al282      Al  0.31703894  0.90023498  0.38236199     1.55560
O283        O  0.22383694  0.90092774  0.33353907    -0.78160
C284        C  0.36600842  0.88063505  0.33676253     0.97750
C285        C  0.31441849  0.96970315  0.37017283     0.92630
O286        O  0.28355478  0.96558886  0.36975421    -0.83480
O287        O  0.27648536  0.01319273  0.15344497    -0.82940
C288        C  0.28721693  0.12348165  0.08702759     0.96420
O289        O  0.29890096  0.12328514  0.11623115    -0.72050
O290        O  0.26029026  0.09076792  0.15830277    -0.75650
Al291      Al  0.30408806  0.08522043  0.14558536     1.48980
C292        C  0.23406358  0.07570003  0.15325161     0.91670
O293        O  0.25084317  0.03911049  0.06767678    -0.81870
O294        O  0.34398956  0.02108625  0.08798783    -0.75420
Al295      Al  0.26633564  0.02794804  0.11181340     1.90120
O296        O  0.29908918  0.03776957  0.04767052    -0.74490
O297        O  0.35728316  0.08850565  0.09238860    -0.74340
O298        O  0.29665644  0.10138027  0.06661475    -0.80000
O299        O  0.35076578  0.08223447  0.14414152    -0.78210
O300        O  0.29726095  0.05813818  0.11244100    -1.14340
O301        O  0.30723453  0.05139602  0.17643742    -0.73540
C302        C  0.29214516  0.02431155  0.17747761     0.97180
C303        C  0.26954081  0.03616170  0.04306167     0.93580
Al304      Al  0.32206679  0.06235022  0.07719931     1.55560
O305        O  0.23215365  0.05477864  0.13023221    -0.78160
C306        C  0.36941760  0.08626745  0.12019346     0.97750
C307        C  0.32743339  0.99423055  0.09236981     0.92630
O308        O  0.29653724  0.99480240  0.09643522    -0.83480
O309        O  0.31593323  0.26871224  0.94750303    -0.82940
C310        C  0.38678761  0.27047370  0.83793310     0.96420
O311        O  0.35710837  0.26617467  0.84545880    -0.72050
O312        O  0.30779204  0.24837111  0.88348819    -0.75650
Al313      Al  0.33345721  0.28749875  0.87768900     1.48980
C314        C  0.31288227  0.21990704  0.89430933     0.91670
O315        O  0.40100947  0.22933409  0.93586760    -0.81870
O316        O  0.40396897  0.31501584  0.94852002    -0.75420
Al317      Al  0.35792833  0.24991067  0.93807964     1.90120
O318        O  0.42908318  0.26813970  0.91061159    -0.74490
O319        O  0.38193119  0.34324548  0.89776683    -0.74340
O320        O  0.40520390  0.28961381  0.85517063    -0.80000
O321        O  0.34645662  0.33033752  0.86139429    -0.78210
O322        O  0.36507713  0.27934735  0.90645611    -1.14340
O323        O  0.30975642  0.30850348  0.91032110    -0.73540
C324        C  0.30275072  0.29544530  0.93767157     0.97180
C325        C  0.42804146  0.24229772  0.92708843     0.93580
Al326      Al  0.40189017  0.30217779  0.90271079     1.55560
O327        O  0.33919365  0.21552307  0.91001140    -0.78160
C328        C  0.36092152  0.35192444  0.87784988     0.97750
C329        C  0.39127683  0.30168589  0.97368964     0.92630
O330        O  0.37292347  0.27715118  0.97087941    -0.83480
O331        O  0.17825509  0.25947686  0.00149906    -0.82940
C332        C  0.10379747  0.26604362  0.10757256     0.96420
O333        O  0.13342263  0.25963003  0.10132734    -0.72050
O334        O  0.18402871  0.24057850  0.06516839    -0.75650
Al335      Al  0.15941494  0.28024558  0.07024779     1.48980
C336        C  0.17727842  0.21218646  0.05502392     0.91670
O337        O  0.09103783  0.22502396  0.01187567    -0.81870
O338        O  0.09561884  0.31206594  0.99676368    -0.75420
Al339      Al  0.13500510  0.24306966  0.00981311     1.90120
O340        O  0.06503073  0.26704680  0.03334150    -0.74490
O341        O  0.11665040  0.33875596  0.04835118    -0.74340
O342        O  0.08754288  0.28648009  0.08966205    -0.80000
O343        O  0.14717450  0.32316175  0.08729153    -0.78210
O344        O  0.12882135  0.27351698  0.04049368    -1.14340
O345        O  0.18485356  0.30030447  0.03787236    -0.73540
C346        C  0.19261520  0.28558140  0.01146059     0.97180
C347        C  0.06476293  0.24019834  0.01875210     0.93580
Al348      Al  0.09407764  0.29900113  0.04241480     1.55560
O349        O  0.15116343  0.20817568  0.03891160    -0.78160
C350        C  0.13499238  0.34632869  0.07113469     0.97750
C351        C  0.10702704  0.29682805  0.97222754     0.92630
O352        O  0.12215596  0.27029074  0.97572596    -0.83480
O353        O  0.96754587  0.30061918  0.26262109    -0.82940
C354        C  0.85955518  0.37081078  0.25838666     0.96420
O355        O  0.86655173  0.34051923  0.25627117    -0.72050
O356        O  0.90705571  0.29196895  0.24072575    -0.75650
Al357      Al  0.89863166  0.31797267  0.27965514     1.48980
C358        C  0.91851672  0.29860607  0.21267721     0.91670
O359        O  0.96082570  0.38894008  0.22446008    -0.81870
O360        O  0.96774921  0.39177374  0.30785072    -0.75420
Al361      Al  0.95987720  0.34391879  0.24435101     1.90120
O362        O  0.93016822  0.41614675  0.25916847    -0.74490
O363        O  0.91554838  0.36839534  0.33512311    -0.74340
O364        O  0.87514306  0.39009216  0.27828160    -0.80000
O365        O  0.88047857  0.33200527  0.32166673    -0.78210
O366        O  0.92703712  0.35078985  0.27192727    -1.14340
O367        O  0.93094101  0.29472670  0.30269475    -0.73540
C368        C  0.95780160  0.28706914  0.28934447     0.97180
C369        C  0.94988407  0.41613206  0.23584401     0.93580
Al370      Al  0.92193834  0.38831415  0.29346730     1.55560
O371        O  0.93334374  0.32597199  0.20882994    -0.78160
C372        C  0.89532358  0.34723267  0.34397053     0.97750
C373        C  0.99293294  0.37722225  0.29668189     0.92630
O374        O  0.99048846  0.35744298  0.27347122    -0.83480
O375        O  0.01905054  0.16121980  0.25327884    -0.82940
C376        C  0.12785811  0.09458563  0.24681489     0.96420
O377        O  0.12033666  0.12468710  0.24471818    -0.72050
O378        O  0.07958790  0.17289239  0.23291797    -0.75650
Al379      Al  0.08882552  0.14567333  0.26940948     1.48980
C380        C  0.07055909  0.16684413  0.20430235     0.91670
O381        O  0.03338869  0.07516263  0.21099354    -0.81870
O382        O  0.02087589  0.07224062  0.29781828    -0.75420
Al383      Al  0.02948662  0.11901558  0.23282800     1.90120
O384        O  0.05903802  0.04890862  0.25017197    -0.74490
O385        O  0.07276676  0.09645153  0.32502003    -0.74340
O386        O  0.11351720  0.07508546  0.26775925    -0.80000
O387        O  0.10881787  0.13152157  0.31002105    -0.78210
O388        O  0.06131451  0.11287826  0.26140323    -1.14340
O389        O  0.05625384  0.16664117  0.29304742    -0.73540
C390        C  0.02962710  0.17470014  0.27968908     0.97180
C391        C  0.04422430  0.04852184  0.22371881     0.93580
Al392      Al  0.06672534  0.07608201  0.28361102     1.55560
O393        O  0.05583888  0.13991557  0.19888703    -0.78160
C394        C  0.09355111  0.11740245  0.33277305     0.97750
C395        C  0.99556886  0.08429868  0.28439127     0.92630
O396        O  0.99858666  0.10229300  0.25987721    -0.83480
O397        O  0.77821168  0.51548293  0.65097037    -0.82940
C398        C  0.78705252  0.62638227  0.57982252     0.96420
O399        O  0.79940129  0.62692756  0.60854275    -0.72050
O400        O  0.75455709  0.60129435  0.64569634    -0.75650
Al401      Al  0.79875230  0.59089725  0.63987229     1.48980
C402        C  0.73105587  0.58173472  0.64909280     0.91670
O403        O  0.74631557  0.53728563  0.56810224    -0.81870
O404        O  0.84072825  0.52177704  0.58515761    -0.75420
Al405      Al  0.76417457  0.52902596  0.61107008     1.90120
O406        O  0.79411819  0.54131918  0.54606111    -0.74490
O407        O  0.85572954  0.58831959  0.59102321    -0.74340
O408        O  0.79576948  0.60339197  0.56044144    -0.80000
O409        O  0.84414079  0.58355475  0.64199895    -0.78210
O410        O  0.79360938  0.56109518  0.60870173    -1.14340
O411        O  0.79709412  0.56038044  0.67470743    -0.73540
C412        C  0.78896136  0.53050661  0.67536150     0.97180
C413        C  0.76516259  0.53364998  0.54358166     0.93580
Al414      Al  0.81949803  0.56388272  0.57369112     1.55560
O415        O  0.73043132  0.55491001  0.63286892    -0.78160
C416        C  0.86529553  0.58622797  0.62002363     0.97750
C417        C  0.82393648  0.49503891  0.58859226     0.92630
O418        O  0.79338918  0.49622551  0.59388079    -0.83480
O419        O  0.77698949  0.44925405  0.79970189    -0.82940
C420        C  0.78923345  0.33888130  0.86682393     0.96420
O421        O  0.80268365  0.33956981  0.83834524    -0.72050
O422        O  0.76228278  0.36759479  0.79616826    -0.75650
Al423      Al  0.80573367  0.37730107  0.80826649     1.48980
C424        C  0.73581089  0.38280176  0.79848445     0.91670
O425        O  0.74815230  0.41975415  0.88323221    -0.81870
O426        O  0.84117609  0.44587384  0.86639062    -0.75420
Al427      Al  0.76497205  0.43348127  0.84021930     1.90120
O428        O  0.79518748  0.42606614  0.90478608    -0.74490
O429        O  0.85791175  0.37879080  0.86222131    -0.74340
O430        O  0.79682508  0.36178844  0.88719763    -0.80000
O431        O  0.85219243  0.38365863  0.81015217    -0.78210
O432        O  0.79712439  0.40493531  0.84062501    -1.14340
O433        O  0.80707451  0.41066563  0.77612050    -0.73540
C434        C  0.79261513  0.43804209  0.77558161     0.97180
C435        C  0.76564605  0.42288926  0.90859890     0.93580
Al436      Al  0.82088936  0.40272488  0.87661136     1.55560
O437        O  0.73286088  0.40568114  0.81941529    -0.78160
C438        C  0.87050136  0.38086224  0.83446232     0.97750
C439        C  0.82310044  0.47175206  0.86277381     0.92630
O440        O  0.79247341  0.46874831  0.85771472    -0.83480
O441        O  0.52399699  0.65922428  0.75047363    -0.82940
C442        C  0.63531359  0.60196213  0.75492108     0.96420
O443        O  0.62911478  0.63242844  0.75727284    -0.72050
O444        O  0.58642285  0.67293171  0.73402728    -0.75650
Al445      Al  0.59247606  0.65330090  0.77537289     1.48980
C446        C  0.57829802  0.66333696  0.70605205     0.91670
O447        O  0.54342000  0.57262466  0.72218982    -0.81870
O448        O  0.53286278  0.58329515  0.81316691    -0.75420
Al449      Al  0.53679978  0.61704463  0.73903054     1.90120
O450        O  0.56406520  0.55112225  0.76608953    -0.74490
O451        O  0.58789071  0.60226980  0.83299555    -0.74340
O452        O  0.62017057  0.58046960  0.77292997    -0.80000
O453        O  0.60715844  0.64905104  0.81995423    -0.78210
O454        O  0.56840577  0.61723869  0.76925372    -1.14340
O455        O  0.55565483  0.67470537  0.79179645    -0.73540
C456        C  0.53054380  0.67802548  0.77414250     0.97180
C457        C  0.55260067  0.54781482  0.73842642     0.93580
Al458      Al  0.57621389  0.58257032  0.79393919     1.55560
O459        O  0.56337012  0.63587583  0.70314253    -0.78160
C460        C  0.59967524  0.62876378  0.84179782     0.97750
C461        C  0.50610661  0.59154298  0.79973446     0.92630
O462        O  0.50523396  0.60160960  0.77025274    -0.83480
O463        O  0.45916669  0.80988360  0.74687511    -0.82940
C464        C  0.34963078  0.87417038  0.76253815     0.96420
O465        O  0.35326801  0.84288576  0.76385353    -0.72050
O466        O  0.39112928  0.80037360  0.73248777    -0.75650
Al467      Al  0.38975495  0.81649027  0.77532309     1.48980
C468        C  0.40137926  0.80886792  0.70485044     0.91670
O469        O  0.43461482  0.89725064  0.72465260    -0.81870
O470        O  0.45556916  0.87356007  0.81665779    -0.75420
Al471      Al  0.44505147  0.85257995  0.73794526     1.90120
O472        O  0.43209044  0.91504981  0.77447910    -0.74490
O473        O  0.39376455  0.86542487  0.83564920    -0.74340
O474        O  0.36976383  0.89388758  0.77718366    -0.80000
O475        O  0.38129753  0.81651623  0.82098582    -0.78210
O476        O  0.41573715  0.85062878  0.77034731    -1.14340
O477        O  0.42544381  0.79124882  0.78564264    -0.73540
C478        C  0.45132900  0.78935012  0.76890114     0.97180
C479        C  0.43579742  0.92069595  0.74505919     0.93580
Al480      Al  0.41245498  0.88342403  0.79808044     1.55560
O481        O  0.41753118  0.83552826  0.70233468    -0.78160
C482        C  0.38500077  0.83722798  0.84306248     0.97750
C483        C  0.48134132  0.87099112  0.79880891     0.92630
O484        O  0.47905151  0.86745862  0.76774074    -0.83480
O485        O  0.67308870  0.76500453  0.50295007    -0.82940
C486        C  0.60991493  0.77144314  0.61570256     0.96420
O487        O  0.64009562  0.77133589  0.60859637    -0.72050
O488        O  0.68448882  0.74925362  0.56735938    -0.75650
Al489      Al  0.66260239  0.78968938  0.57274711     1.48980
C490        C  0.67727014  0.72040890  0.55951836     0.91670
O491        O  0.58659157  0.73306595  0.52311444    -0.81870
O492        O  0.59316789  0.82293427  0.50880014    -0.75420
Al493      Al  0.63060735  0.75087053  0.51696653     1.90120
O494        O  0.56318432  0.77646380  0.54325762    -0.74490
O495        O  0.61281906  0.84770231  0.56275834    -0.74340
O496        O  0.59007096  0.78997236  0.59962798    -0.80000
O497        O  0.65687133  0.83454270  0.58707414    -0.78210
O498        O  0.62836044  0.78237245  0.54759497    -1.14340
O499        O  0.68472733  0.80631198  0.53663119    -0.73540
C500        C  0.68959301  0.79046807  0.51038273     0.97180
C501        C  0.56099829  0.74963803  0.52910772     0.93580
Al502      Al  0.59325055  0.80695381  0.55384835     1.55560
O503        O  0.64982581  0.71598797  0.54548420    -0.78160
C504        C  0.63815310  0.85639874  0.57665761     0.97750
C505        C  0.60109859  0.80729755  0.48293176     0.92630
O506        O  0.61446865  0.77933701  0.48461043    -0.83480
O507        O  0.81252767  0.77440036  0.44347864    -0.82940
C508        C  0.89051041  0.77258568  0.33988254     0.96420
O509        O  0.85999309  0.77017621  0.34401090    -0.72050
O510        O  0.80855943  0.75409517  0.38020459    -0.75650
Al511      Al  0.83440400  0.79294385  0.37493860     1.48980
C512        C  0.81276925  0.72573622  0.39165070     0.91670
O513        O  0.89823770  0.73586786  0.44031503    -0.81870
O514        O  0.90209491  0.81953584  0.44972061    -0.75420
Al515      Al  0.85492467  0.75619353  0.43792653     1.90120
O516        O  0.92778277  0.77121248  0.41222858    -0.74490
O517        O  0.88324656  0.84803627  0.39743763    -0.74340
O518        O  0.90743577  0.79327604  0.35675981    -0.80000
O519        O  0.84891903  0.83620409  0.35954462    -0.78210
O520        O  0.86419695  0.78482101  0.40593375    -1.14340
O521        O  0.80794826  0.81419389  0.40586872    -0.73540
C522        C  0.79904055  0.80036008  0.43240881     0.97180
C523        C  0.92586454  0.74771202  0.43184753     0.93580
Al524      Al  0.90179073  0.80636393  0.40363183     1.55560
O525        O  0.83795579  0.72126982  0.40919778    -0.78160
C526        C  0.86325843  0.85747339  0.37673301     0.97750
C527        C  0.88767705  0.80748406  0.47465249     0.92630
O528        O  0.86764919  0.78431032  0.47140651    -0.83480
O529        O  0.12649262  0.77596665  0.97544464    -0.82940
C530        C  0.09929802  0.76468880  0.84428099     0.96420
O531        O  0.08217318  0.78377392  0.86276145    -0.72050
O532        O  0.06341320  0.76133073  0.91933952    -0.75650
Al533      Al  0.08900484  0.79675094  0.90949260     1.48980
C534        C  0.06601170  0.73783678  0.93887200     0.91670
O535        O  0.15253724  0.71178793  0.91245083    -0.81870
O536        O  0.18285026  0.80539891  0.90821558    -0.75420
Al537      Al  0.13721532  0.74709046  0.94188409     1.90120
O538        O  0.18151820  0.74497934  0.88233009    -0.74490
O539        O  0.14084362  0.82710082  0.86339971    -0.74340
O540        O  0.12972367  0.76199154  0.84798813    -0.80000
O541        O  0.10699803  0.83889077  0.90203360    -0.78210
O542        O  0.12678595  0.77556585  0.91019171    -1.14340
O543        O  0.09014851  0.80971174  0.95578400    -0.73540
C544        C  0.10648360  0.79877470  0.97991156     0.97180
C545        C  0.17722624  0.71651441  0.89390897     0.93580
Al546      Al  0.15576783  0.78408296  0.87823870     1.55560
O547        O  0.09389536  0.72664004  0.94666648    -0.78160
C548        C  0.12626766  0.84835587  0.88032318     0.97750
C549        C  0.19303907  0.79130951  0.93394571     0.92630
O550        O  0.18019279  0.76509310  0.94546411    -0.83480
O551        O  0.37570050  0.77705678  0.98284726    -0.82940
C552        C  0.38297901  0.77147806  0.11487430     0.96420
O553        O  0.40294513  0.78862615  0.09706355    -0.72050
O554        O  0.42763287  0.77523328  0.03953696    -0.75650
Al555      Al  0.39871389  0.80533710  0.05132897     1.48980
C556        C  0.42982170  0.74844856  0.02566124     0.91670
O557        O  0.34196188  0.71553039  0.04449664    -0.81870
O558        O  0.30800167  0.80642156  0.03640980    -0.75420
Al559      Al  0.36039191  0.74952719  0.01596264     1.90120
O560        O  0.30696363  0.74791032  0.06757792    -0.74490
O561        O  0.33733295  0.83410757  0.08685186    -0.74340
O562        O  0.35260133  0.77067995  0.10844063    -0.80000
O563        O  0.38148708  0.84572059  0.06178096    -0.78210
O564        O  0.36343529  0.78100958  0.04667583    -1.14340
O565        O  0.39660052  0.82145803  0.00603227    -0.73540
C566        C  0.38756595  0.80556472  0.98064936     0.97180
C567        C  0.31407231  0.71954214  0.05754323     0.93580
Al568      Al  0.32971274  0.78898711  0.07267952     1.55560
O569        O  0.40426597  0.73144440  0.02062136    -0.78160
C570        C  0.35744076  0.85532757  0.07701181     0.97750
C571        C  0.30341057  0.79100690  0.00979001     0.92630
O572        O  0.31805406  0.76416517  0.00358568    -0.83480
O573        O  0.29679776  0.49017905  0.85524173    -0.82940
C574        C  0.28510373  0.62380742  0.86272080     0.96420
O575        O  0.30327877  0.60768665  0.88295586    -0.72050
O576        O  0.29009965  0.55194002  0.91116936    -0.75650
Al577      Al  0.32046797  0.56158639  0.88059653     1.48980
C578        C  0.26572008  0.53429013  0.91357489     0.91670
O579        O  0.23246860  0.55097258  0.82685021    -0.81870
O580        O  0.32205909  0.54372095  0.78669493    -0.75420
Al581      Al  0.26742556  0.52274057  0.84266311     1.90120
O582        O  0.26251928  0.57324935  0.78832716    -0.74490
O583        O  0.34926613  0.59527018  0.81676470    -0.74340
O584        O  0.28520050  0.61631718  0.83235974    -0.80000
O585        O  0.36056716  0.57103366  0.86191709    -0.78210
O586        O  0.29733061  0.55473848  0.84481043    -1.14340
O587        O  0.33673971  0.51563117  0.88103742    -0.73540
C588        C  0.32392050  0.48936137  0.86927783     0.97180
C589        C  0.23488536  0.56363297  0.79830100     0.93580
Al590      Al  0.30425883  0.58026635  0.80960985     1.55560
O591        O  0.25117621  0.52480178  0.88782791    -0.78160
C592        C  0.37019616  0.58525448  0.83689235     0.97750
C593        C  0.30589849  0.51724094  0.78303911     0.92630
O594        O  0.27982506  0.51208917  0.79915924    -0.83480
O595        O  0.29461844  0.46692865  0.60737462    -0.82940
C596        C  0.28458984  0.33333696  0.58768584     0.96420
O597        O  0.30483276  0.34967452  0.56925970    -0.72050
O598        O  0.28210301  0.40190732  0.54481755    -0.75650
Al599      Al  0.31680966  0.39824533  0.57223714     1.48980
C600        C  0.26283871  0.42530147  0.54342499     0.91670
O601        O  0.23136319  0.40139278  0.62693939    -0.81870
O602        O  0.32108067  0.40849398  0.66618672    -0.75420
Al603      Al  0.26540410  0.43326209  0.61532719     1.90120
O604        O  0.26250405  0.37804504  0.66308292    -0.74490
O605        O  0.34614714  0.35976728  0.62917916    -0.74340
O606        O  0.28360549  0.33991276  0.61778181    -0.80000
O607        O  0.35806177  0.39585071  0.59279660    -0.78210
O608        O  0.29485634  0.40206751  0.60895943    -1.14340
O609        O  0.32741443  0.44637744  0.57004667    -0.73540
C610        C  0.31670247  0.47100564  0.58645848     0.97180
C611        C  0.23432773  0.38515443  0.65365159     0.93580
Al612      Al  0.30290914  0.37379798  0.64116022     1.55560
O613        O  0.25097493  0.43715612  0.56969553    -0.78160
C614        C  0.36731688  0.37712975  0.61507186     0.97750
C615        C  0.30360904  0.43277251  0.67465003     0.92630
O616        O  0.27708318  0.43965183  0.66022218    -0.83480
O617        O  0.98880386  0.10800867  0.77329567    -0.82940
C618        C  0.85883600  0.09546280  0.76046050     0.96420
O619        O  0.87346191  0.07513203  0.78010138    -0.72050
O620        O  0.92580139  0.05153311  0.75749208    -0.75650
Al621      Al  0.92069574  0.07570182  0.79388208     1.48980
C622        C  0.94309967  0.05271382  0.73251626     0.91670
O623        O  0.92900145  0.14436175  0.71427603    -0.81870
O624        O  0.92880324  0.16732418  0.80989794    -0.75420
Al625      Al  0.95669200  0.12357207  0.74687267     1.90120
O626        O  0.90446952  0.17571174  0.74926263    -0.74490
O627        O  0.87972326  0.12859710  0.82782774    -0.74340
O628        O  0.86496086  0.12591582  0.76128922    -0.80000
O629        O  0.91674452  0.09258314  0.83706872    -0.78210
O630        O  0.92507420  0.11458832  0.77514972    -1.14340
O631        O  0.96772210  0.07077907  0.80542359    -0.73540
C632        C  0.99269590  0.08636240  0.79450320     0.97180
C633        C  0.91447141  0.17126317  0.72031493     0.93580
Al634      Al  0.89670600  0.14628122  0.78613766     1.55560
O635        O  0.95578295  0.08010264  0.72315954    -0.78160
C636        C  0.89682415  0.11283956  0.84813774     0.97750
C637        C  0.95460047  0.17690277  0.79582330     0.92630
O638        O  0.96473853  0.16500447  0.76849501    -0.83480
O639        O  0.00168498  0.36443611  0.77054959    -0.82940
C640        C  0.13194443  0.36122470  0.75013288     0.96420
O641        O  0.11873005  0.38087976  0.77108076    -0.72050
O642        O  0.06463536  0.41223967  0.76367358    -0.75650
Al643      Al  0.07475539  0.37997030  0.79125080     1.48980
C644        C  0.05058060  0.41772773  0.73755401     0.91670
O645        O  0.05288928  0.33067954  0.69907674    -0.81870
O646        O  0.05373708  0.28937050  0.78647454    -0.75420
Al647      Al  0.03022447  0.34855930  0.73768623     1.90120
O648        O  0.07661510  0.29118430  0.72570582    -0.74490
O649        O  0.10751670  0.31309092  0.81057168    -0.74340
O650        O  0.12264799  0.33166277  0.74677368    -0.80000
O651        O  0.08488997  0.35678046  0.82877019    -0.78210
O652        O  0.06421240  0.34678351  0.76515087    -1.14340
O653        O  0.03226192  0.38220775  0.81134162    -0.73540
C654        C  0.00459660  0.37559124  0.79927684     0.97180
C655        C  0.06469362  0.30174186  0.69938112     0.93580
Al656      Al  0.08809596  0.31029198  0.76711979     1.55560
O657        O  0.03799910  0.39396111  0.72160926    -0.78160
C658        C  0.09935720  0.33084100  0.83438978     0.97750
C659        C  0.02611178  0.28608431  0.77357989     0.92630
O660        O  0.01610500  0.30502175  0.75077398    -0.83480
O661        O  0.11968835  0.18265784  0.47093952    -0.82940
C662        C  0.09623208  0.20477277  0.59982798     0.96420
O663        O  0.08020905  0.18175620  0.58496253    -0.72050
O664        O  0.06052387  0.19759443  0.52692791    -0.75650
Al665      Al  0.08686145  0.16425207  0.53942870     1.48980
C666        C  0.06251931  0.22174390  0.50809370     0.91670
O667        O  0.15166560  0.24960672  0.52731733    -0.81870
O668        O  0.17856240  0.15616322  0.54009221    -0.75420
Al669      Al  0.13336497  0.21258185  0.50220352     1.90120
O670        O  0.18032872  0.21872692  0.55959609    -0.74490
O671        O  0.13648815  0.14137802  0.58885897    -0.74340
O672        O  0.12668379  0.20817967  0.59544555    -0.80000
O673        O  0.10714029  0.12378268  0.54958893    -0.78210
O674        O  0.12372582  0.18674468  0.53607447    -1.14340
O675        O  0.08720925  0.14700373  0.49476877    -0.73540
C676        C  0.10076023  0.15846101  0.46912662     0.97180
C677        C  0.17645591  0.24593031  0.54550711     0.93580
Al678      Al  0.15263822  0.18167453  0.56821884     1.55560
O679        O  0.09021038  0.23382518  0.49974851    -0.78160
C680        C  0.12532595  0.11733214  0.57302363     0.97750
C681        C  0.18809786  0.16700749  0.51238535     0.92630
O682        O  0.17527316  0.19200276  0.49827743    -0.83480
O683        O  0.37195035  0.18357218  0.46831683    -0.82940
C684        C  0.38249933  0.19354983  0.33588051     0.96420
O685        O  0.40191221  0.17514154  0.35267376    -0.72050
O686        O  0.42682051  0.18918238  0.40927772    -0.75650
Al687      Al  0.39765397  0.15826313  0.39861837     1.48980
C688        C  0.42845846  0.21467978  0.42565860     0.91670
O689        O  0.34223102  0.24777392  0.40592209    -0.81870
O690        O  0.30600656  0.15614717  0.41217833    -0.75420
Al691      Al  0.35831014  0.21263147  0.43533906     1.90120
O692        O  0.30650546  0.21575242  0.38321525    -0.74490
O693        O  0.33729231  0.13125704  0.36144964    -0.74340
O694        O  0.35230190  0.19480996  0.34271922    -0.80000
O695        O  0.37854259  0.11786126  0.38929480    -0.78210
O696        O  0.36227123  0.18219829  0.40396188    -1.14340
O697        O  0.39674268  0.14201802  0.44397159    -0.73540
C698        C  0.38628516  0.15618797  0.46983884     0.97180
C699        C  0.31542384  0.24443424  0.39059350     0.93580
Al700      Al  0.32901169  0.17510113  0.37724747     1.55560
O701        O  0.40267704  0.23026010  0.43304101    -0.78160
C702        C  0.35517748  0.10903151  0.37255687     0.97750
C703        C  0.29958851  0.17184078  0.43825244     0.92630
O704        O  0.31472289  0.19821129  0.44594016    -0.83480
O705        O  0.79287673  0.97137339  0.10565752    -0.82940
C706        C  0.78190777  0.83816492  0.08307074     0.96420
O707        O  0.80222753  0.85525180  0.06544169    -0.72050
O708        O  0.77973037  0.90956327  0.04367922    -0.75650
Al709      Al  0.81429889  0.90364743  0.07004403     1.48980
C710        C  0.75801987  0.93079270  0.04382855     0.91670
O711        O  0.72928944  0.90855057  0.13056663    -0.81870
O712        O  0.82183829  0.90737711  0.16270676    -0.75420
Al713      Al  0.76428656  0.93812218  0.11584664     1.90120
O714        O  0.76170760  0.88149373  0.16292616    -0.74490
O715        O  0.84264617  0.86006635  0.12259917    -0.74340
O716        O  0.77811582  0.84467028  0.11311388    -0.80000
O717        O  0.85544967  0.89983726  0.09056549    -0.78210
O718        O  0.79243484  0.90620546  0.10713716    -1.14340
O719        O  0.82543303  0.95111801  0.06839436    -0.73540
C720        C  0.81443642  0.97567410  0.08441347     0.97180
C721        C  0.73359587  0.89197419  0.15676211     0.93580
Al722      Al  0.80034376  0.87582213  0.13751293     1.55560
O723        O  0.74637438  0.94147685  0.07090656    -0.78160
C724        C  0.86433120  0.87864545  0.11072422     0.97750
C725        C  0.80742288  0.93301748  0.17250439     0.92630
O726        O  0.78087971  0.94325829  0.15982946    -0.83480
O727        O  0.79895802  0.99007156  0.35077933    -0.82940
C728        C  0.77696615  0.12367161  0.35285884     0.96420
O729        O  0.79928726  0.11153115  0.37129849    -0.72050
O730        O  0.77872808  0.06224166  0.40276563    -0.75650
Al731      Al  0.81343005  0.06494319  0.37495446     1.48980
C732        C  0.76179266  0.03741918  0.40798955     0.91670
O733        O  0.72860549  0.04267301  0.32199354    -0.81870
O734        O  0.81902504  0.04252731  0.28364392    -0.75420
Al735      Al  0.76612302  0.01834303  0.33822829     1.90120
O736        O  0.75734387  0.06622382  0.28306072    -0.74490
O737        O  0.83851981  0.09814659  0.31364466    -0.74340
O738        O  0.77417353  0.11315845  0.32380267    -0.80000
O739        O  0.85341656  0.06816341  0.35381593    -0.78210
O740        O  0.79172827  0.05375036  0.33962142    -1.14340
O741        O  0.82894506  0.01994265  0.38380707    -0.73540
C742        C  0.82237196  0.99260996  0.37008003     0.97180
C743        C  0.73043601  0.05505559  0.29316758     0.93580
Al744      Al  0.79695715  0.07823488  0.30391922     1.55560
O745        O  0.75173987  0.02003005  0.38410698    -0.78160
C746        C  0.86109317  0.08563626  0.33010711     0.97750
C747        C  0.80537949  0.01463676  0.27957269     0.92630
O748        O  0.77906550  0.00735656  0.29451333    -0.83480
O749        O  0.50729301  0.84821259  0.27845595    -0.82940
C750        C  0.64114648  0.86491077  0.26287470     0.96420
O751        O  0.62556380  0.88324357  0.28336487    -0.72050
O752        O  0.57713323  0.90437586  0.25250846    -0.75650
Al753      Al  0.57721817  0.88315790  0.29218000     1.48980
C754        C  0.55046303  0.91068827  0.23988806     0.91670
O755        O  0.56481578  0.82462932  0.20944876    -0.81870
O756        O  0.56615949  0.79169632  0.30263670    -0.75420
Al757      Al  0.53738025  0.83903259  0.24637787     1.90120
O758        O  0.59084253  0.78993367  0.24110400    -0.74490
O759        O  0.61412574  0.82752935  0.32398093    -0.74340
O760        O  0.63192088  0.83558992  0.25853809    -0.80000
O761        O  0.57849530  0.86514708  0.33541781    -0.78210
O762        O  0.57103269  0.84560483  0.27301637    -1.14340
O763        O  0.52896789  0.89133853  0.30160513    -0.73540
C764        C  0.50375868  0.87359581  0.29522703     0.97180
C765        C  0.58047268  0.79757420  0.21292513     0.93580
Al766      Al  0.59878824  0.81369248  0.28091021     1.55560
O767        O  0.53312299  0.88622313  0.23065400    -0.78160
C768        C  0.59774610  0.84322301  0.34508748     0.97750
C769        C  0.54021064  0.78306564  0.28899608     0.92630
O770        O  0.53133309  0.79457350  0.26132192    -0.83480
O771        O  0.48766821  0.60410011  0.26762352    -0.82940
C772        C  0.35852180  0.59380755  0.25895730     0.96420
O773        O  0.37508806  0.57485878  0.27829964    -0.72050
O774        O  0.43283695  0.55165268  0.26354141    -0.75650
Al775      Al  0.42074462  0.57971783  0.29522126     1.48980
C776        C  0.44544628  0.55189911  0.23588943     0.91670
O777        O  0.42945386  0.64341374  0.20810335    -0.81870
O778        O  0.43171709  0.67241212  0.29993986    -0.75420
Al779      Al  0.45557534  0.62170735  0.24126838     1.90120
O780        O  0.40346019  0.67497405  0.24172438    -0.74490
O781        O  0.38009679  0.63799471  0.32313680    -0.74340
O782        O  0.36368144  0.62486144  0.25819309    -0.80000
O783        O  0.41151555  0.59849376  0.33620075    -0.78210
O784        O  0.42469527  0.61635413  0.27180341    -1.14340
O785        O  0.46550918  0.58089119  0.31092240    -0.73540
C786        C  0.49060913  0.59011519  0.29488738     0.97180
C787        C  0.41358519  0.66970011  0.21325868     0.93580
Al788      Al  0.39719786  0.64897368  0.27997405     1.55560
O789        O  0.45008402  0.57878088  0.22036210    -0.78160
C790        C  0.39341771  0.62113216  0.34506412     0.97750
C791        C  0.45871571  0.67789788  0.28520898     0.92630
O792        O  0.46696651  0.66306433  0.25906302    -0.83480
O793        O  0.19102898  0.48750439  0.11211791    -0.82940
C794        C  0.21518671  0.61897500  0.08664739     0.96420
O795        O  0.19223006  0.60423204  0.07073700    -0.72050
O796        O  0.21512610  0.55013884  0.04911851    -0.75650
Al797      Al  0.17910069  0.55655531  0.07428969     1.48980
C798        C  0.23263425  0.52514497  0.04885685     0.91670
O799        O  0.26077700  0.54246115  0.13540616    -0.81870
O800        O  0.16880118  0.55472286  0.16763770    -0.75420
Al801      Al  0.22312752  0.51726120  0.12136283     1.90120
O802        O  0.23249957  0.57347914  0.16853919    -0.74490
O803        O  0.15308744  0.60196829  0.12590291    -0.74340
O804        O  0.21994743  0.61240221  0.11664991    -0.80000
O805        O  0.13814404  0.56214625  0.09451996    -0.78210
O806        O  0.19931998  0.55211855  0.11206066    -1.14340
O807        O  0.16622244  0.50954178  0.07053652    -0.73540
C808        C  0.17332907  0.48430984  0.08766590     0.97180
C809        C  0.25883887  0.55873090  0.16198622     0.93580
Al810      Al  0.19414788  0.58345983  0.14212629     1.55560
O811        O  0.24097379  0.51144840  0.07592065    -0.78160
C812        C  0.13037346  0.58464153  0.11384326     0.97750
C813        C  0.17915241  0.52702076  0.17703572     0.92630
O814        O  0.20524407  0.51434926  0.16533075    -0.83480
O815        O  0.19962282  0.47459096  0.35643559    -0.82940
C816        C  0.21311051  0.34250140  0.36221900     0.96420
O817        O  0.19341749  0.35753693  0.38216489    -0.72050
O818        O  0.20746097  0.41443753  0.40871382    -0.75650
Al819      Al  0.17575405  0.40402534  0.38030298     1.48980
C820        C  0.23274754  0.43121061  0.40895196     0.91670
O821        O  0.26074279  0.41490857  0.31909232    -0.81870
O822        O  0.16821443  0.41859803  0.28913948    -0.75420
Al823      Al  0.22707748  0.44281927  0.33913640     1.90120
O824        O  0.22745947  0.39381415  0.28430864    -0.74490
O825        O  0.15036252  0.36315775  0.32296656    -0.74340
O826        O  0.21465320  0.35086145  0.33211173    -0.80000
O827        O  0.13545284  0.39594737  0.36063339    -0.78210
O828        O  0.19813222  0.41068150  0.34402096    -1.14340
O829        O  0.15939581  0.44922835  0.38204653    -0.73540
C830        C  0.17338509  0.47562181  0.37238736     0.97180
C831        C  0.25589698  0.40204297  0.29108519     0.93580
Al832      Al  0.19080080  0.38392512  0.31053874     1.55560
O833        O  0.24717031  0.43882671  0.38226250    -0.78160
C834        C  0.12782259  0.37674476  0.33844010     0.97750
C835        C  0.18232466  0.44611735  0.28302974     0.92630
O836        O  0.20888869  0.45456096  0.29707101    -0.83480
O837        O  0.86875087  0.28595274  0.48727530    -0.82940
C838        C  0.89061519  0.27382351  0.62065897     0.96420
O839        O  0.90837115  0.29362667  0.60317951    -0.72050
O840        O  0.93083495  0.27161264  0.54850172    -0.75650
Al841      Al  0.90385982  0.30655966  0.55552524     1.48980
C842        C  0.93094490  0.25219321  0.52496641     0.91670
O843        O  0.84523770  0.21961929  0.54938359    -0.81870
O844        O  0.81005410  0.31209988  0.55072081    -0.75420
Al845      Al  0.85916662  0.25599210  0.52012822     1.90120
O846        O  0.81237443  0.25142301  0.57672571    -0.74490
O847        O  0.84871241  0.33527008  0.59800093    -0.74340
O848        O  0.86067586  0.27026841  0.61439572    -0.80000
O849        O  0.88436871  0.34821805  0.56123457    -0.78210
O850        O  0.86690789  0.28445364  0.55242630    -1.14340
O851        O  0.90528808  0.31907226  0.50811027    -0.73540
C852        C  0.88975259  0.30807549  0.48329686     0.97180
C853        C  0.81908034  0.22309335  0.56617069     0.93580
Al854      Al  0.83597235  0.29166859  0.58249258     1.55560
O855        O  0.90412048  0.23954852  0.51535538    -0.78160
C856        C  0.86375693  0.35704066  0.58187955     0.97750
C857        C  0.80141705  0.29702713  0.52497047     0.92630
O858        O  0.81528950  0.27076715  0.51520540    -0.83480
O859        O  0.61827336  0.27669290  0.47256117    -0.82940
C860        C  0.61370750  0.26846215  0.34028604     0.96420
O861        O  0.59417950  0.28778351  0.35597415    -0.72050
O862        O  0.56535959  0.27147090  0.41056692    -0.75650
Al863      Al  0.59552549  0.30313602  0.40261546     1.48980
C864        C  0.56330369  0.24603173  0.42731706     0.91670
O865        O  0.64959244  0.21308645  0.41253145    -0.81870
O866        O  0.68739770  0.30294272  0.42014959    -0.75420
Al867      Al  0.63275493  0.24797951  0.44070230     1.90120
O868        O  0.68690527  0.24440218  0.39042872    -0.74490
O869        O  0.65892392  0.33086856  0.36922065    -0.74340
O870        O  0.64338546  0.26707823  0.34858429    -0.80000
O871        O  0.61572511  0.34413629  0.39555516    -0.78210
O872        O  0.63070276  0.27883960  0.40939184    -1.14340
O873        O  0.59315419  0.31789337  0.44849987    -0.73540
C874        C  0.60294355  0.30334769  0.47442041     0.97180
C875        C  0.67744701  0.21623413  0.39917658     0.93580
Al876      Al  0.66546499  0.28577250  0.38417343     1.55560
O877        O  0.58873159  0.23105085  0.43646946    -0.78160
C878        C  0.64045103  0.35285793  0.38025356     0.97750
C879        C  0.69220710  0.28682637  0.44627985     0.92630
O880        O  0.67572739  0.26120189  0.45342972    -0.83480
O881        O  0.50219700  0.09908840  0.18250963    -0.82940
C882        C  0.63085327  0.09199070  0.19855062     0.96420
O883        O  0.61128847  0.07112370  0.18542873    -0.72050
O884        O  0.54965492  0.04855401  0.18899391    -0.75650
Al885      Al  0.57109632  0.07846867  0.16150574     1.48980
C886        C  0.54090960  0.04860192  0.21826068     0.91670
O887        O  0.55601703  0.13972141  0.24985705    -0.81870
O888        O  0.55745328  0.17602843  0.16505663    -0.75420
Al889      Al  0.53257256  0.11758628  0.21400986     1.90120
O890        O  0.59028424  0.16761527  0.21991664    -0.74490
O891        O  0.59954903  0.14445640  0.13235266    -0.74340
O892        O  0.62851079  0.12294459  0.19298143    -0.80000
O893        O  0.59208536  0.09347001  0.12255376    -0.78210
O894        O  0.56526302  0.11530905  0.18478402    -1.14340
O895        O  0.53117581  0.08495344  0.13850489    -0.73540
C896        C  0.50404042  0.09101019  0.15228436     0.97180
C897        C  0.57631975  0.16335567  0.24687755     0.93580
Al898      Al  0.59203745  0.14911115  0.17811006     1.55560
O899        O  0.54025522  0.07525315  0.23420964    -0.78160
C900        C  0.59744700  0.12176266  0.11192840     0.97750
C901        C  0.52969370  0.17854437  0.17828746     0.92630
O902        O  0.51975007  0.15841440  0.19943102    -0.83480
O903        O  0.48492436  0.36027319  0.18590370    -0.82940
C904        C  0.35587722  0.37338992  0.19210499     0.96420
O905        O  0.37203987  0.38994055  0.16993609    -0.72050
O906        O  0.42743974  0.41361070  0.18610373    -0.75650
Al907      Al  0.41914804  0.38477239  0.15551595     1.48980
C908        C  0.43722191  0.41565402  0.21453840     0.91670
O909        O  0.42115468  0.32722396  0.24561402    -0.81870
O910        O  0.42414988  0.29433784  0.15356659    -0.75420
Al911      Al  0.45060686  0.34528978  0.21182533     1.90120
O912        O  0.39851301  0.29276890  0.21261524    -0.74490
O913        O  0.37406179  0.33060864  0.13192440    -0.74340
O914        O  0.36090594  0.34293876  0.19654536    -0.80000
O915        O  0.41350370  0.36159619  0.11655063    -0.78210
O916        O  0.42106684  0.35006371  0.18093583    -1.14340
O917        O  0.46537203  0.38470328  0.14278585    -0.73540
C918        C  0.48979406  0.37503147  0.15932669     0.97180
C919        C  0.40686370  0.29983475  0.24118538     0.93580
Al920      Al  0.39186959  0.31830759  0.17431012     1.55560
O921        O  0.44548158  0.38983046  0.23042467    -0.78160
C922        C  0.39128828  0.34230434  0.10919554     0.97750
C923        C  0.45036295  0.28728433  0.16830501     0.92630
O924        O  0.46045439  0.30225081  0.19416636    -0.83480
O925        O  0.86729550  0.68411700  0.97299421    -0.82940
C926        C  0.88335513  0.69420467  0.83773878     0.96420
O927        O  0.89996562  0.67275632  0.85380286    -0.72050
O928        O  0.92672078  0.69620284  0.90395672    -0.75650
Al929      Al  0.89764478  0.66202064  0.90178309     1.48980
C930        C  0.93169711  0.71436926  0.92774698     0.91670
O931        O  0.84820179  0.75351727  0.91159463    -0.81870
O932        O  0.80452877  0.66479111  0.91554614    -0.75420
Al933      Al  0.86012379  0.71599946  0.94027630     1.90120
O934        O  0.81089888  0.72438722  0.88614163    -0.74490
O935        O  0.83700706  0.63559266  0.86607165    -0.74340
O936        O  0.85407946  0.69955594  0.84589450    -0.80000
O937        O  0.87536722  0.62121807  0.89889405    -0.78210
O938        O  0.86289485  0.68667753  0.90763701    -1.14340
O939        O  0.90164844  0.65021005  0.94923158    -0.73540
C940        C  0.88614815  0.65988507  0.97477719     0.97180
C941        C  0.82080037  0.75196996  0.89649576     0.93580
Al942      Al  0.82962016  0.68136983  0.88048903     1.55560
O943        O  0.90724907  0.72727420  0.94219215    -0.78160
C944        C  0.85295108  0.61300108  0.88002956     0.97750
C945        C  0.79824186  0.68238957  0.94050508     0.92630
O946        O  0.81518540  0.70750179  0.94746146    -0.83480
O947        O  0.62037258  0.68351693  0.98495288    -0.82940
C948        C  0.60489657  0.69285868  0.11712639     0.96420
O949        O  0.58651115  0.67286129  0.10061178    -0.72050
O950        O  0.56319125  0.69116677  0.04431037    -0.75650
Al951      Al  0.59086640  0.65807421  0.05338687     1.48980
C952        C  0.56373877  0.71621209  0.02678140     0.91670
O953        O  0.65095783  0.74525863  0.04764550    -0.81870
O954        O  0.68242488  0.65160101  0.04641945    -0.75420
Al955      Al  0.63400736  0.71073664  0.01847452     1.90120
O956        O  0.68428196  0.71223277  0.07174160    -0.74490
O957        O  0.64551766  0.63105169  0.09693124    -0.74340
O958        O  0.63486393  0.69592532  0.11019619    -0.80000
O959        O  0.61089733  0.61709676  0.06027802    -0.78210
O960        O  0.62711666  0.68104021  0.04979018    -1.14340
O961        O  0.59032034  0.64440180  0.00689638    -0.73540
C962        C  0.60220044  0.65888707  0.98167839     0.97180
C963        C  0.67787854  0.74093622  0.06228160     0.93580
Al964      Al  0.65855553  0.67338339  0.07883375     1.55560
O965        O  0.59057015  0.73018659  0.01917549    -0.78160
C966        C  0.63105619  0.60882506  0.08134782     0.97750
C967        C  0.69030860  0.66659899  0.02020379     0.92630
O968        O  0.67637495  0.69295822  0.01038897    -0.83480
O969        O  0.69351751  0.96675756  0.85553350    -0.82940
C970        C  0.70920543  0.83584086  0.85854492     0.96420
O971        O  0.68894917  0.84973657  0.87863253    -0.72050
O972        O  0.70092038  0.90498047  0.90784476    -0.75650
Al973      Al  0.66999523  0.89534150  0.87759403     1.48980
C974        C  0.72555389  0.92261346  0.90928796     0.91670
O975        O  0.75699104  0.90948218  0.82098954    -0.81870
O976        O  0.66761811  0.91289759  0.78454194    -0.75420
Al977      Al  0.72204279  0.93589160  0.83923157     1.90120
O978        O  0.72710124  0.88581763  0.78408325    -0.74490
O979        O  0.64228337  0.86102815  0.81377316    -0.74340
O980        O  0.70703852  0.84219945  0.82818597    -0.80000
O981        O  0.62931909  0.88661821  0.85774496    -0.78210
O982        O  0.69286648  0.90330158  0.84159486    -1.14340
O983        O  0.65314111  0.94096343  0.88049578    -0.73540
C984        C  0.66741856  0.96763889  0.87161641     0.97180
C985        C  0.75459514  0.89621007  0.79296831     0.93580
Al986      Al  0.68650236  0.87756936  0.80646834     1.55560
O987        O  0.74011592  0.93146436  0.88313439    -0.78160
C988        C  0.62054538  0.87213645  0.83246926     0.97750
C989        C  0.68149651  0.94052233  0.78061748     0.92630
O990        O  0.70683773  0.94862494  0.79671598    -0.83480
O991        O  0.70200019  0.99604856  0.59822233    -0.82940
C992        C  0.71149548  0.12881919  0.59123885     0.96420
O993        O  0.69394168  0.11193171  0.57106712    -0.72050
O994        O  0.70644676  0.05441958  0.54523773    -0.75650
Al995      Al  0.67623922  0.06601821  0.57506331     1.48980
C996        C  0.73262753  0.03950601  0.54414955     0.91670
O997        O  0.76475207  0.05762300  0.63156180    -0.81870
O998        O  0.67644381  0.05040058  0.66845824    -0.75420
Al999      Al  0.73042462  0.02870450  0.61383513     1.90120
O1000       O  0.73281945  0.08139670  0.66628339    -0.74490
O1001       O  0.64894569  0.10033430  0.63891860    -0.74340
O1002       O  0.71115233  0.12199984  0.62168431    -0.80000
O1003       O  0.63607887  0.07565124  0.59460873    -0.78210
O1004       O  0.69993608  0.06000841  0.61082754    -1.14340
O1005       O  0.65983459  0.02086529  0.57555316    -0.73540
C1006       C  0.67469348  0.99470457  0.58411810     0.97180
C1007       C  0.76098358  0.07336996  0.65825734     0.93580
Al1008     Al  0.69296583  0.08619609  0.64494424     1.55560
O1009       O  0.74824696  0.03350174  0.57018773    -0.78160
C1010       C  0.62744247  0.08952553  0.62020860     0.97750
C1011       C  0.69157256  0.02376162  0.67340260     0.92630
O1012       O  0.71649691  0.01573282  0.65679367    -0.83480
O1013       O  0.99259293  0.86505669  0.68075004    -0.82940
C1014       C  0.86075869  0.86852625  0.69984323     0.96420
O1015       O  0.87581834  0.88894642  0.68063552    -0.72050
O1016       O  0.93249795  0.91560468  0.69368152    -0.75650
Al1017     Al  0.92070339  0.88728105  0.66146204     1.48980
C1018       C  0.94634828  0.91621837  0.72080862     0.91670
O1019       O  0.93722497  0.82474983  0.74779030    -0.81870
O1020       O  0.93587090  0.79511934  0.65557134    -0.75420
Al1021     Al  0.96199583  0.84683211  0.71180177     1.90120
O1022       O  0.91098105  0.79191622  0.71529878    -0.74490
O1023       O  0.88233199  0.82636364  0.63559787    -0.74340
O1024       O  0.86841107  0.83826609  0.70071467    -0.80000
O1025       O  0.91068388  0.86785060  0.62097151    -0.78210
O1026       O  0.92841058  0.85082128  0.68399671    -1.14340
O1027       O  0.96346328  0.88887943  0.64214759    -0.73540
C1028       C  0.99053294  0.87879323  0.65286155     0.97180
C1029       C  0.92102522  0.79816830  0.74347250     0.93580
Al1030     Al  0.90196965  0.81675013  0.67745514     1.55560
O1031       O  0.95689459  0.88979598  0.73359475    -0.78160
C1032       C  0.89388429  0.84377678  0.61301559     0.97750
C1033       C  0.96307220  0.78932596  0.66917018     0.92630
O1034       O  0.97320531  0.80522072  0.69394165    -0.83480
O1035       O  0.00412881  0.61368490  0.67660488    -0.82940
C1036       C  0.13548813  0.59759429  0.69887083     0.96420
O1037       O  0.12080265  0.57775583  0.67899037    -0.72050
O1038       O  0.06999202  0.55701734  0.70656210    -0.75650
Al1039     Al  0.07321909  0.57711921  0.66704264     1.48980
C1040       C  0.04575653  0.55603950  0.72495627     0.91670
O1041       O  0.05780506  0.64259807  0.74398175    -0.81870
O1042       O  0.06436753  0.67146634  0.65023258    -0.75420
Al1043     Al  0.03267907  0.62592947  0.70816371     1.90120
O1044       O  0.08713174  0.67516812  0.71303531    -0.74490
O1045       O  0.11106835  0.63195240  0.63153786    -0.74340
O1046       O  0.12812919  0.62766764  0.69815259    -0.80000
O1047       O  0.07676345  0.59212326  0.62290665    -0.78210
O1048       O  0.06709087  0.61693453  0.68325829    -1.14340
O1049       O  0.02594312  0.56905546  0.65632378    -0.73540
C1050       C  0.00110506  0.58753062  0.66106549     0.97180
C1051       C  0.07339641  0.66946404  0.74045918     0.93580
Al1052     Al  0.09569928  0.64880896  0.67393767     1.55560
O1053       O  0.02858736  0.58172063  0.72920068    -0.78160
C1054       C  0.09520627  0.61409592  0.61167609     0.97750
C1055       C  0.03746359  0.68027145  0.66222468     0.92630
O1056       O  0.02713662  0.66905087  0.68956152    -0.83480
C1057       C  0.01626753  0.76465832  0.65369665    -0.02990
C1058       C  0.98213796  0.76169982  0.65792644     0.06690
C1059       C  0.96640373  0.73108429  0.65378984    -0.03100
C1060       C  0.98504974  0.70361005  0.64644107    -0.03100
C1061       C  0.01910268  0.70620553  0.64620068     0.06830
C1062       C  0.03407199  0.73711798  0.64417809    -0.03300
Br1063     Br  0.07916598  0.74119959  0.63086300    -0.01850
Br1064     Br  0.04033561  0.80307499  0.66756671    -0.01920
Br1065     Br  0.96386099  0.66254088  0.63725153    -0.01880
Br1066     Br  0.92138178  0.72402025  0.66670829    -0.01860
C1067       C  0.81421787  0.88330798  0.78066046    -0.02990
C1068       C  0.78311731  0.89277639  0.76952793     0.06690
C1069       C  0.77892346  0.89752206  0.73508584    -0.03100
C1070       C  0.80437699  0.89082249  0.71239360    -0.03100
C1071       C  0.83468250  0.87950043  0.72347640     0.06830
C1072       C  0.83949975  0.87639455  0.75789211    -0.03300
Br1073     Br  0.88155932  0.86460336  0.77464227    -0.01850
Br1074     Br  0.82241907  0.87885596  0.82715515    -0.01920
Br1075     Br  0.79747389  0.89581603  0.66578493    -0.01880
Br1076     Br  0.73897699  0.91502361  0.71815586    -0.01860
C1077       C  0.66492727  0.95017821  0.72326862    -0.02990
C1078       C  0.67045868  0.96281379  0.75485972     0.06690
C1079       C  0.67520042  0.99687002  0.75923125    -0.03100
C1080       C  0.68131938  0.01696971  0.73228076    -0.03100
C1081       C  0.68151317  0.00316667  0.70078758     0.06830
C1082       C  0.67301094  0.96980390  0.69621863    -0.03300
Br1083     Br  0.67747138  0.94884903  0.65449958    -0.01850
Br1084     Br  0.64943934  0.90550552  0.71636762    -0.01920
Br1085     Br  0.69530794  0.06174774  0.73967381    -0.01880
Br1086     Br  0.67464660  0.01640300  0.80193244    -0.01860
C1087       C  0.79354377  0.79099246  0.85784585    -0.02990
C1088       C  0.79786530  0.78063397  0.89036485     0.06690
C1089       C  0.77296674  0.78881399  0.91315182    -0.03100
C1090       C  0.74420929  0.80615749  0.90328770    -0.03100
C1091       C  0.73847256  0.81449114  0.86974177     0.06830
C1092       C  0.76402467  0.80568764  0.84702631    -0.03300
Br1093     Br  0.75983780  0.81009687  0.79988217    -0.01850
Br1094     Br  0.82960902  0.78486814  0.82814145    -0.01920
Br1095     Br  0.71222785  0.81640639  0.93632331    -0.01880
Br1096     Br  0.77832740  0.77605337  0.95837340    -0.01860
C1097       C  0.92823270  0.73138145  0.81158936    -0.02990
C1098       C  0.89703401  0.71581047  0.81020782     0.06690
C1099       C  0.87515341  0.72729650  0.78601071    -0.03100
C1100       C  0.88186209  0.75613194  0.76752922    -0.03100
C1101       C  0.91251840  0.77258165  0.76950718     0.06830
C1102       C  0.93596212  0.75915555  0.79114775    -0.03300
Br1103     Br  0.97925067  0.77791348  0.79183675    -0.01850
Br1104     Br  0.96143574  0.71436588  0.84010177    -0.01920
Br1105     Br  0.84687179  0.77405230  0.74123863    -0.01880
Br1106     Br  0.83569313  0.70256034  0.77685882    -0.01860
C1107       C  0.77253665  0.68124942  0.99603562    -0.02990
C1108       C  0.77085429  0.67420076  0.96187186     0.06690
C1109       C  0.74300526  0.65856981  0.94866891    -0.03100
C1110       C  0.71715515  0.65049011  0.96950500    -0.03100
C1111       C  0.71942076  0.65726596  0.00310565     0.06830
C1112       C  0.74816387  0.66943588  0.01672557    -0.03300
Br1113     Br  0.75280303  0.67266830  0.06387055    -0.01850
Br1114     Br  0.80653940  0.70765870  0.01634288    -0.01920
Br1115     Br  0.67762284  0.63234746  0.95186516    -0.01880
Br1116     Br  0.73695716  0.65322525  0.90180037    -0.01860
C1117       C  0.47368253  0.20139542  0.17349668    -0.02990
C1118       C  0.50804902  0.20534753  0.16958613     0.06690
C1119       C  0.52132505  0.23566717  0.15864876    -0.03100
C1120       C  0.50033484  0.26115465  0.15068376    -0.03100
C1121       C  0.46731810  0.25822785  0.15833361     0.06830
C1122       C  0.45343960  0.22804216  0.16748544    -0.03300
Br1123     Br  0.40695366  0.22399264  0.17532308    -0.01850
Br1124     Br  0.45267680  0.16159212  0.19012310    -0.01920
Br1125     Br  0.51647705  0.30045378  0.12988627    -0.01880
Br1126     Br  0.56743217  0.24602839  0.16122544    -0.01860
C1127       C  0.56077707  0.20628611  0.29025651    -0.02990
C1128       C  0.58489846  0.18775944  0.27360925     0.06690
C1129       C  0.61769531  0.19831142  0.27647441    -0.03100
C1130       C  0.62625276  0.22661983  0.29490960    -0.03100
C1131       C  0.60252242  0.24406952  0.31386047     0.06830
C1132       C  0.56943901  0.23355696  0.31070386    -0.03300
Br1133     Br  0.53506666  0.25641262  0.33346093    -0.01850
Br1134     Br  0.51539818  0.19589907  0.28303227    -0.01920
Br1135     Br  0.67126555  0.24138609  0.29171491    -0.01880
Br1136     Br  0.65201802  0.17335843  0.25524604    -0.01860
C1137       C  0.74240811  0.30113029  0.52202916    -0.02990
C1138       C  0.77271918  0.30738168  0.50738046     0.06690
C1139       C  0.77538662  0.31237012  0.47337831    -0.03100
C1140       C  0.74915971  0.30506376  0.45316714    -0.03100
C1141       C  0.71895000  0.29663263  0.46751379     0.06830
C1142       C  0.71536574  0.29579573  0.50205171    -0.03300
Br1143     Br  0.67488604  0.28435954  0.52286285    -0.01850
Br1144     Br  0.73872127  0.29602827  0.56919286    -0.01920
Br1145     Br  0.75731072  0.30060516  0.40640602    -0.01880
Br1146     Br  0.81514218  0.32808581  0.45398374    -0.01860
C1147       C  0.77287784  0.19908910  0.60044549    -0.02990
C1148       C  0.79352341  0.19633304  0.57241609     0.06690
C1149       C  0.78478861  0.17246626  0.54850707    -0.03100
C1150       C  0.75657878  0.15195759  0.55278189    -0.03100
C1151       C  0.73570224  0.15546204  0.58059658     0.06830
C1152       C  0.74356398  0.18072653  0.60321942    -0.03300
Br1153     Br  0.71284941  0.19210889  0.63758098    -0.01850
Br1154     Br  0.78556456  0.22613383  0.63742553    -0.01920
Br1155     Br  0.74701828  0.11937024  0.51987391    -0.01880
Br1156     Br  0.81125503  0.16749788  0.50959113    -0.01860
C1157       C  0.31374335  0.40935953  0.26849596    -0.02990
C1158       C  0.28171847  0.39719606  0.26475746     0.06690
C1159       C  0.27438730  0.38024126  0.23466752    -0.03100
C1160       C  0.29759506  0.37848028  0.20882567    -0.03100
C1161       C  0.33011354  0.38796837  0.21397231     0.06830
C1162       C  0.33803678  0.40093187  0.24537406    -0.03300
Br1163     Br  0.38119999  0.39875614  0.26218314    -0.01850
Br1164     Br  0.32609032  0.43625532  0.30573165    -0.01920
Br1165     Br  0.28613390  0.35886919  0.16713141    -0.01880
Br1166     Br  0.23490489  0.35465344  0.22859253    -0.01860
C1167       C  0.15540124  0.47682477  0.20056039    -0.02990
C1168       C  0.16278544  0.51030814  0.20412210     0.06690
C1169       C  0.16582475  0.52395713  0.23538852    -0.03100
C1170       C  0.16993677  0.50284627  0.26219069    -0.03100
C1171       C  0.16950645  0.46814330  0.25755826     0.06830
C1172       C  0.16091437  0.45523533  0.22662398    -0.03300
Br1173     Br  0.16433797  0.40899512  0.21661038    -0.01850
Br1174     Br  0.13819086  0.46089812  0.15982341    -0.01920
Br1175     Br  0.18172551  0.52287424  0.30297248    -0.01880
Br1176     Br  0.17003615  0.57122056  0.24069750    -0.01860
C1177       C  0.42922170  0.50542141  0.20318909    -0.02990
C1178       C  0.45263337  0.51862844  0.22389139     0.06690
C1179       C  0.47015049  0.49658483  0.24495752    -0.03100
C1180       C  0.46507518  0.46228047  0.24343036    -0.03100
C1181       C  0.43854484  0.45024563  0.22567914     0.06830
C1182       C  0.41857283  0.47319281  0.20844815    -0.03300
Br1183     Br  0.37549483  0.46195157  0.19308034    -0.01850
Br1184     Br  0.40947518  0.53220349  0.16983795    -0.01920
Br1185     Br  0.49337383  0.43240889  0.26677664    -0.01880
Br1186     Br  0.49740868  0.51189552  0.27989080    -0.01860
C1187       C  0.33920152  0.58532089  0.20010935    -0.02990
C1188       C  0.33438479  0.57993964  0.23433231     0.06690
C1189       C  0.30631683  0.56206209  0.24376718    -0.03100
C1190       C  0.28265781  0.55283596  0.21987917    -0.03100
C1191       C  0.28662657  0.56112046  0.18613703     0.06830
C1192       C  0.31653048  0.57462674  0.17645059    -0.03300
Br1193     Br  0.32735409  0.57742893  0.13050967    -0.01850
Br1194     Br  0.37627670  0.60796895  0.18364575    -0.01920
Br1195     Br  0.24714717  0.52496218  0.23284980    -0.01880
Br1196     Br  0.29955216  0.55159493  0.28946160    -0.01860
C1197       C  0.56416672  0.00087095  0.24541771    -0.02990
C1198       C  0.53651170  0.01593710  0.23320506     0.06690
C1199       C  0.50892344  0.99582085  0.22680788    -0.03100
C1200       C  0.51212803  0.96070896  0.22718224    -0.03100
C1201       C  0.54091796  0.94660145  0.24025532     0.06830
C1202       C  0.56281287  0.96884409  0.25561598    -0.03300
Br1203     Br  0.57967636  0.96454815  0.29943891    -0.01850
Br1204     Br  0.60656526  0.01923706  0.24257609    -0.01920
Br1205     Br  0.47723625  0.93350599  0.21142105    -0.01880
Br1206     Br  0.46732399  0.01640846  0.22038301    -0.01860
C1207       C  0.53615410  0.72490243  0.29679241    -0.02990
C1208       C  0.52298166  0.75581495  0.30285597     0.06690
C1209       C  0.49035579  0.75984438  0.31166586    -0.03100
C1210       C  0.46857196  0.73421617  0.30599441    -0.03100
C1211       C  0.48091662  0.70314272  0.29688462     0.06830
C1212       C  0.51510941  0.69837022  0.29371453    -0.03300
Br1213     Br  0.53467214  0.65855933  0.27842039    -0.01850
Br1214     Br  0.58238319  0.72003143  0.28687582    -0.01920
Br1215     Br  0.42318472  0.74551085  0.30103034    -0.01880
Br1216     Br  0.47576374  0.80059357  0.33040255    -0.01860
C1217       C  0.61320378  0.75097243  0.18856932    -0.02990
C1218       C  0.58576574  0.77210752  0.18618461     0.06690
C1219       C  0.56175772  0.76395776  0.16249620    -0.03100
C1220       C  0.56626318  0.73656972  0.14093676    -0.03100
C1221       C  0.59322481  0.71507076  0.14447015     0.06830
C1222       C  0.61527525  0.72165342  0.17018188    -0.03300
Br1223     Br  0.64886601  0.68991656  0.18073936    -0.01850
Br1224     Br  0.65053648  0.76309772  0.21456992    -0.01920
Br1225     Br  0.53602770  0.72951936  0.10592554    -0.01880
Br1226     Br  0.52234066  0.78954054  0.15954373    -0.01860
C1227       C  0.78150782  0.03320485  0.46656982    -0.02990
C1228       C  0.75583490  0.02936678  0.44301086     0.06690
C1229       C  0.72466550  0.02054505  0.45393237    -0.03100
C1230       C  0.71811070  0.01990788  0.48774878    -0.03100
C1231       C  0.74262646  0.02913383  0.51089693     0.06830
C1232       C  0.77473557  0.03308030  0.50034200    -0.03300
Br1233     Br  0.80916888  0.04048460  0.53195567    -0.01850
Br1234     Br  0.82683075  0.03810686  0.45475771    -0.01920
Br1235     Br  0.67476883  0.00659113  0.50118224    -0.01880
Br1236     Br  0.69009015  0.01220206  0.42278508    -0.01860
C1237       C  0.64923938  0.08114134  0.25722897    -0.02990
C1238       C  0.65575243  0.08026746  0.22284356     0.06690
C1239       C  0.68499571  0.06592125  0.21214002    -0.03100
C1240       C  0.70820230  0.05478181  0.23522930    -0.03100
C1241       C  0.70244137  0.05771608  0.26967664     0.06830
C1242       C  0.67165461  0.06843478  0.28024401    -0.03300
Br1243     Br  0.65983785  0.06557570  0.32623886    -0.01850
Br1244     Br  0.60833968  0.09650753  0.27386830    -0.01920
Br1245     Br  0.74707423  0.03353417  0.21895160    -0.01880
Br1246     Br  0.69342219  0.06233201  0.16562666    -0.01860
C1247       C  0.75657793  0.16674361  0.39473929    -0.02990
C1248       C  0.75167325  0.14806844  0.36569448     0.06690
C1249       C  0.72031176  0.15049250  0.35050010    -0.03100
C1250       C  0.69443112  0.16787512  0.36551475    -0.03100
C1251       C  0.70016281  0.18810966  0.39259821     0.06830
C1252       C  0.73134742  0.18714414  0.40742150    -0.03300
Br1253     Br  0.73924001  0.21317855  0.44612087    -0.01850
Br1254     Br  0.79870610  0.16776360  0.41569238    -0.01920
Br1255     Br  0.65047346  0.16421939  0.34914721    -0.01880
Br1256     Br  0.71207382  0.13488678  0.30678870    -0.01860
C1257       C  0.76661367  0.93847033  0.95259623    -0.02990
C1258       C  0.73425192  0.93392721  0.94297326     0.06690
C1259       C  0.70892924  0.93960196  0.96673768    -0.03100
C1260       C  0.71613638  0.94193215  0.00043000    -0.03100
C1261       C  0.74857166  0.94188726  0.01036927     0.06830
C1262       C  0.77347171  0.94456813  0.98582227    -0.03300
Br1263     Br  0.81726326  0.95760582  0.99664124    -0.01850
Br1264     Br  0.80183038  0.93425897  0.92119047    -0.01920
Br1265     Br  0.68181269  0.94388795  0.03292717    -0.01880
Br1266     Br  0.66410105  0.94620650  0.95445813    -0.01860
C1267       C  0.75716111  0.78240856  0.09140895    -0.02990
C1268       C  0.76057329  0.81028071  0.07078309     0.06690
C1269       C  0.73600753  0.81554373  0.04694592    -0.03100
C1270       C  0.70808820  0.79443838  0.04498542    -0.03100
C1271       C  0.70409817  0.76731391  0.06680920     0.06830
C1272       C  0.72867944  0.76262137  0.09095039    -0.03300
Br1273     Br  0.72206506  0.73234175  0.12721835    -0.01850
Br1274     Br  0.79214928  0.77149295  0.12120072    -0.01920
Br1275     Br  0.67444265  0.80457987  0.01367901    -0.01880
Br1276     Br  0.74016762  0.85179916  0.01681262    -0.01860
C1277       C  0.70877082  0.85589910  0.20061061    -0.02990
C1278       C  0.70794254  0.88596459  0.18278292     0.06690
C1279       C  0.68857265  0.91186053  0.19562234    -0.03100
C1280       C  0.66900154  0.90680315  0.22423219    -0.03100
C1281       C  0.66913886  0.87627555  0.24118812     0.06830
C1282       C  0.69173456  0.85230424  0.23058254    -0.03300
Br1283     Br  0.70216932  0.81589305  0.25931115    -0.01850
Br1284     Br  0.73179969  0.81816656  0.18334041    -0.01920
Br1285     Br  0.64424839  0.94269757  0.24141289    -0.01880
Br1286     Br  0.68964055  0.95485142  0.17517937    -0.01860
C1287       C  0.83339251  0.98068607  0.19887209    -0.02990
C1288       C  0.81932781  0.94930475  0.20146819     0.06690
C1289       C  0.81031829  0.93621542  0.23186284    -0.03100
C1290       C  0.80975790  0.95682003  0.25914169    -0.03100
C1291       C  0.81781618  0.99082442  0.25543582     0.06830
C1292       C  0.83258176  0.00189999  0.22588349    -0.03300
Br1293     Br  0.84817222  0.04653983  0.21983206    -0.01850
Br1294     Br  0.85233399  0.99467288  0.15784173    -0.01920
Br1295     Br  0.79544548  0.93740866  0.30006553    -0.01880
Br1296     Br  0.79513532  0.89100136  0.23519178    -0.01860
C1297       C  0.50631657  0.26213235  0.44276441    -0.02990
C1298       C  0.52960940  0.23667206  0.43680456     0.06690
C1299       C  0.51915011  0.20390789  0.43716835    -0.03100
C1300       C  0.48562367  0.19716061  0.43908619    -0.03100
C1301       C  0.46221250  0.22319544  0.43598130     0.06830
C1302       C  0.47272441  0.25570256  0.44034139    -0.03300
Br1303     Br  0.44182619  0.29146040  0.44220869    -0.01850
Br1304     Br  0.51950695  0.30571789  0.45627707    -0.01920
Br1305     Br  0.47306664  0.15198902  0.44812646    -0.01880
Br1306     Br  0.55014438  0.16830874  0.43347131    -0.01860
C1307       C  0.28641614  0.29931409  0.40333729    -0.02990
C1308       C  0.29198674  0.27227015  0.38218157     0.06690
C1309       C  0.27072682  0.26869037  0.35493939    -0.03100
C1310       C  0.24320851  0.28931412  0.35084302    -0.03100
C1311       C  0.23666984  0.31559619  0.37278807     0.06830
C1312       C  0.25841593  0.31980768  0.39958580    -0.03300
Br1313     Br  0.25019515  0.35316912  0.43196333    -0.01850
Br1314     Br  0.31893486  0.31065712  0.43527957    -0.01920
Br1315     Br  0.21342611  0.28019525  0.31521673    -0.01880
Br1316     Br  0.28120372  0.23801167  0.32022167    -0.01860
C1317       C  0.37276662  0.22196712  0.28217976    -0.02990
C1318       C  0.39383839  0.21661574  0.30894405     0.06690
C1319       C  0.41971078  0.23948066  0.31365489    -0.03100
C1320       C  0.42355935  0.26750974  0.29276946    -0.03100
C1321       C  0.40092204  0.27388609  0.26735519     0.06830
C1322       C  0.37479176  0.25110467  0.26322925    -0.03300
Br1323     Br  0.33908257  0.26068586  0.23384028    -0.01850
Br1324     Br  0.34147693  0.18819978  0.27042611    -0.01920
Br1325     Br  0.45991222  0.29705628  0.29953697    -0.01880
Br1326     Br  0.45004906  0.23310473  0.34881602    -0.01860
C1327       C  0.97270708  0.21494485  0.49793335    -0.02990
C1328       C  0.96362082  0.24622648  0.50932172     0.06690
C1329       C  0.98740495  0.27240364  0.50714684    -0.03100
C1330       C  0.02049729  0.26558664  0.50079592    -0.03100
C1331       C  0.03016385  0.23312838  0.49640618     0.06830
C1332       C  0.00569996  0.20881457  0.49043856    -0.03300
Br1333     Br  0.01730175  0.16648385  0.47262167    -0.01850
Br1334     Br  0.94107670  0.17966983  0.49496527    -0.01920
Br1335     Br  0.05278701  0.30026500  0.49780855    -0.01880
Br1336     Br  0.97687991  0.31833420  0.51175277    -0.01860
C1337       C  0.24307700  0.15093575  0.44390087    -0.02990
C1338       C  0.27255081  0.16070605  0.45883875     0.06690
C1339       C  0.27479731  0.16242816  0.49346213    -0.03100
C1340       C  0.24681513  0.15829090  0.51264550    -0.03100
C1341       C  0.21685317  0.15313473  0.49711452     0.06830
C1342       C  0.21557026  0.14603583  0.46349097    -0.03300
Br1343     Br  0.17537720  0.13213344  0.44396003    -0.01850
Br1344     Br  0.23778101  0.14983819  0.39661565    -0.01920
Br1345     Br  0.24898147  0.16418304  0.55969597    -0.01880
Br1346     Br  0.31478670  0.17334785  0.51546702    -0.01860
C1347       C  0.01913481  0.46818092  0.72040514    -0.02990
C1348       C  0.04877432  0.45356822  0.72963337     0.06690
C1349       C  0.07358337  0.47421138  0.74298789    -0.03100
C1350       C  0.06725619  0.50723111  0.75072767    -0.03100
C1351       C  0.03923241  0.52274321  0.73865299     0.06830
C1352       C  0.01473629  0.50262719  0.72424309    -0.03300
Br1353     Br  0.97482438  0.52145800  0.70960851    -0.01850
Br1354     Br  0.98449872  0.44123073  0.70259512    -0.01920
Br1355     Br  0.09947539  0.53342245  0.77368965    -0.01880
Br1356     Br  0.11750402  0.45828958  0.74961433    -0.01860
C1357       C  0.05668705  0.24451115  0.67502030    -0.02990
C1358       C  0.06464936  0.27843375  0.67027982     0.06690
C1359       C  0.07576969  0.28793020  0.63886036    -0.03100
C1360       C  0.08235611  0.26364744  0.61465757    -0.03100
C1361       C  0.08014055  0.22946258  0.62201145     0.06830
C1362       C  0.06610277  0.22012890  0.65205216    -0.03300
Br1363     Br  0.06151296  0.17390807  0.66251074    -0.01850
Br1364     Br  0.02870842  0.23136503  0.71038892    -0.01920
Br1365     Br  0.09369805  0.27735806  0.57093888    -0.01880
Br1366     Br  0.08276223  0.33382569  0.62886993    -0.01860
C1367       C  0.97808944  0.00240524  0.72734438    -0.02990
C1368       C  0.94877675  0.01899222  0.71881752     0.06690
C1369       C  0.92038216  0.99918653  0.71741079    -0.03100
C1370       C  0.91964872  0.96778534  0.73142609    -0.03100
C1371       C  0.94847007  0.94987786  0.73502024     0.06830
C1372       C  0.97809719  0.96773105  0.73392601    -0.03300
Br1373     Br  0.01771686  0.94493838  0.74466338    -0.01850
Br1374     Br  0.01792257  0.02709808  0.73068957    -0.01920
Br1375     Br  0.87853029  0.94733307  0.74168688    -0.01880
Br1376     Br  0.88141091  0.01405677  0.69708630    -0.01860
C1377       C  0.82096613  0.07576589  0.67637198    -0.02990
C1378       C  0.78765056  0.08096663  0.68275433     0.06690
C1379       C  0.77943530  0.09420765  0.71419350    -0.03100
C1380       C  0.80133939  0.09190264  0.74077933    -0.03100
C1381       C  0.83445448  0.08545657  0.73491550     0.06830
C1382       C  0.84407975  0.08228871  0.70135858    -0.03300
Br1383     Br  0.88727196  0.09389274  0.68726945    -0.01850
Br1384     Br  0.83586698  0.06525690  0.63253640    -0.01920
Br1385     Br  0.78701116  0.10314676  0.78453594    -0.01880
Br1386     Br  0.74479244  0.12611740  0.71868899    -0.01860
C1387       C  0.92682360  0.22796900  0.64375794    -0.02990
C1388       C  0.90316290  0.25288175  0.64872659     0.06690
C1389       C  0.88447111  0.25138503  0.67789151    -0.03100
C1390       C  0.88678159  0.22427032  0.69985065    -0.03100
C1391       C  0.91021882  0.19875633  0.69487763     0.06830
C1392       C  0.93080571  0.20167074  0.66672582    -0.03300
Br1393     Br  0.96484933  0.16985223  0.65850206    -0.01850
Br1394     Br  0.95321544  0.22850266  0.60464279    -0.01920
Br1395     Br  0.85462035  0.22175059  0.73468384    -0.01880
Br1396     Br  0.85503613  0.28729461  0.68765408    -0.01860
C1397       C  0.97247380  0.26166202  0.78856131    -0.02990
C1398       C  0.00656143  0.25857708  0.78500501     0.06690
C1399       C  0.02269974  0.22921900  0.79466477    -0.03100
C1400       C  0.00471466  0.20390760  0.80868685    -0.03100
C1401       C  0.97083892  0.20562749  0.80822225     0.06830
C1402       C  0.95487351  0.23549391  0.80208088    -0.03300
Br1403     Br  0.90832709  0.23900134  0.80829778    -0.01850
Br1404     Br  0.94870492  0.29921282  0.77188656    -0.01920
Br1405     Br  0.02595404  0.16473314  0.82425424    -0.01880
Br1406     Br  0.06810232  0.21990468  0.78393565    -0.01860
C1407       C  0.28179666  0.44044699  0.48623931    -0.02990
C1408       C  0.25602483  0.43813811  0.51000607     0.06690
C1409       C  0.22413753  0.44415916  0.49994961    -0.03100
C1410       C  0.21769036  0.44768916  0.46633332    -0.03100
C1411       C  0.24260036  0.44172020  0.44233585     0.06830
C1412       C  0.27496743  0.44067274  0.45245939    -0.03300
Br1413     Br  0.30971248  0.43749760  0.42041830    -0.01850
Br1414     Br  0.32681980  0.44512237  0.49828681    -0.01920
Br1415     Br  0.17417585  0.46074493  0.45437151    -0.01880
Br1416     Br  0.18885774  0.44486484  0.53161851    -0.01860
C1417       C  0.23265571  0.29839544  0.59708035    -0.02990
C1418       C  0.25840337  0.30879560  0.57542467     0.06690
C1419       C  0.25597673  0.29769243  0.54251156    -0.03100
C1420       C  0.22834352  0.27889635  0.53158619    -0.03100
C1421       C  0.20143482  0.27243447  0.55277136     0.06830
C1422       C  0.20390942  0.28323430  0.58536631    -0.03300
Br1423     Br  0.16788259  0.27539351  0.61523025    -0.01850
Br1424     Br  0.23738785  0.29751028  0.64404393    -0.01920
Br1425     Br  0.22835086  0.25985282  0.48828215    -0.01880
Br1426     Br  0.29277018  0.30332450  0.51401828    -0.01860
C1427       C  0.17490870  0.38982518  0.67216743    -0.02990
C1428       C  0.20655686  0.37681592  0.67681890     0.06690
C1429       C  0.21256759  0.35861985  0.70664925    -0.03100
C1430       C  0.18925797  0.35803503  0.73217277    -0.03100
C1431       C  0.15841086  0.37169344  0.72758259     0.06830
C1432       C  0.15087706  0.38597059  0.69685019    -0.03300
Br1433     Br  0.10674084  0.39747594  0.68679251    -0.01850
Br1434     Br  0.16287983  0.41201495  0.63188850    -0.01920
Br1435     Br  0.19899088  0.33787435  0.77420672    -0.01880
Br1436     Br  0.25274090  0.33489665  0.71576203    -0.01860
C1437       C  0.28217798  0.51975888  0.97205080    -0.02990
C1438       C  0.25702084  0.52422234  0.94786846     0.06690
C1439       C  0.22455654  0.51945862  0.95738160    -0.03100
C1440       C  0.21710492  0.51307488  0.99053906    -0.03100
C1441       C  0.24172350  0.51378773  0.01525566     0.06830
C1442       C  0.27427066  0.51418905  0.00536126    -0.03300
Br1443     Br  0.30778280  0.50751695  0.03785953    -0.01850
Br1444     Br  0.32823552  0.52085787  0.96133935    -0.01920
Br1445     Br  0.17254596  0.50249838  0.00070006    -0.01880
Br1446     Br  0.18971631  0.52521821  0.92596598    -0.01860
C1447       C  0.33506544  0.49863352  0.73101446    -0.02990
C1448       C  0.31475601  0.49210382  0.75858112     0.06690
C1449       C  0.29810663  0.46157108  0.76046768    -0.03100
C1450       C  0.29265918  0.44433043  0.73205649    -0.03100
C1451       C  0.31133977  0.45089586  0.70415735     0.06830
C1452       C  0.33427793  0.47675238  0.70413649    -0.03300
Br1453     Br  0.36142877  0.48403442  0.66607805    -0.01850
Br1454     Br  0.36353266  0.53658607  0.72918327    -0.01920
Br1455     Br  0.25402500  0.41818462  0.73058076    -0.01880
Br1456     Br  0.28136398  0.44194511  0.80070419    -0.01860
C1457       C  0.20274460  0.54930150  0.74635497    -0.02990
C1458       C  0.20621961  0.56806001  0.77558661     0.06690
C1459       C  0.18579490  0.59515822  0.77995995    -0.03100
C1460       C  0.16460915  0.60557741  0.75460744    -0.03100
C1461       C  0.16029751  0.58677015  0.72494415     0.06830
C1462       C  0.17939349  0.55782351  0.72185741    -0.03300
Br1463     Br  0.17579478  0.53072503  0.68311215    -0.01850
Br1464     Br  0.22999659  0.51146924  0.73966214    -0.01920
Br1465     Br  0.14432564  0.64752823  0.76208394    -0.01880
Br1466     Br  0.18793985  0.61863589  0.82123242    -0.01860
C1467       C  0.48777466  0.76613849  0.01355244    -0.02990
C1468       C  0.46385107  0.74010955  0.01591378     0.06690
C1469       C  0.47400059  0.70769556  0.01077288    -0.03100
C1470       C  0.50749750  0.70122824  0.00818486    -0.03100
C1471       C  0.53110347  0.72630314  0.01511076     0.06830
C1472       C  0.52117471  0.75908173  0.01561715    -0.03300
Br1473     Br  0.55278230  0.79409968  0.02099227    -0.01850
Br1474     Br  0.47646433  0.81180553  0.00547049    -0.01920
Br1475     Br  0.52000314  0.65790182  0.99376293    -0.01880
Br1476     Br  0.44281094  0.67193442  0.00811887    -0.01860
C1477       C  0.29626375  0.65871339  0.06241969    -0.02990
C1478       C  0.28818154  0.69253846  0.06001209     0.06690
C1479       C  0.25417055  0.70063535  0.05961661    -0.03100
C1480       C  0.22983903  0.67644948  0.06637671    -0.03100
C1481       C  0.23838202  0.64333134  0.07098861     0.06830
C1482       C  0.27139887  0.63453927  0.06640321    -0.03300
Br1483     Br  0.28206417  0.58879509  0.06300775    -0.01850
Br1484     Br  0.34122681  0.64482249  0.06209581    -0.01920
Br1485     Br  0.18447216  0.68829935  0.06942082    -0.01880
Br1486     Br  0.23943491  0.74412636  0.04758043    -0.01860
C1487       C  0.42218616  0.72867206  0.13888982    -0.02990
C1488       C  0.39440226  0.74919169  0.14237990     0.06690
C1489       C  0.37343820  0.74312553  0.16940088    -0.03100
C1490       C  0.37818818  0.71562505  0.19026303    -0.03100
C1491       C  0.40631752  0.69534784  0.18719780     0.06830
C1492       C  0.42857429  0.70270241  0.16149485    -0.03300
Br1493     Br  0.46843350  0.67781061  0.15705395    -0.01850
Br1494     Br  0.45124710  0.73446431  0.10234551    -0.01920
Br1495     Br  0.34363459  0.70475660  0.22102060    -0.01880
Br1496     Br  0.33836767  0.77349888  0.17902705    -0.01860
C1497       C  0.01131012  0.74936480  0.96244192    -0.02990
C1498       C  0.03431977  0.72557786  0.95179699     0.06690
C1499       C  0.02289058  0.69520990  0.94133677    -0.03100
C1500       C  0.98975698  0.69142984  0.93307985    -0.03100
C1501       C  0.96672488  0.71784028  0.93841100     0.06830
C1502       C  0.97784451  0.74597635  0.95528154    -0.03300
Br1503     Br  0.94848689  0.78144139  0.96636268    -0.01850
Br1504     Br  0.02574378  0.78679532  0.98736706    -0.01920
Br1505     Br  0.97866906  0.64867222  0.91554158    -0.01880
Br1506     Br  0.05302152  0.65872376  0.94065638    -0.01860
C1507       C  0.24303688  0.64812423  0.90404121    -0.02990
C1508       C  0.26054928  0.65012514  0.87371842     0.06690
C1509       C  0.24965442  0.67405721  0.85072013    -0.03100
C1510       C  0.22073489  0.69248683  0.85611062    -0.03100
C1511       C  0.20336569  0.69078398  0.88636491     0.06830
C1512       C  0.21535861  0.66861788  0.91046560    -0.03300
Br1513     Br  0.19464516  0.66673263  0.95310308    -0.01850
Br1514     Br  0.25621521  0.61747828  0.93763062    -0.01920
Br1515     Br  0.20365803  0.71814113  0.81994478    -0.01880
Br1516     Br  0.27535174  0.68372618  0.81186608    -0.01860
C1517       C  0.07968481  0.70903856  0.82626308    -0.02990
C1518       C  0.08461152  0.74276034  0.81887902     0.06690
C1519       C  0.08416486  0.75265406  0.78593665    -0.03100
C1520       C  0.08016421  0.72907796  0.76062295    -0.03100
C1521       C  0.07559220  0.69483765  0.76778757     0.06830
C1522       C  0.07403880  0.68544310  0.80132031    -0.03300
Br1523     Br  0.06699564  0.63995155  0.81415185    -0.01850
Br1524     Br  0.08458224  0.69435118  0.87067726    -0.01920
Br1525     Br  0.08176021  0.74513599  0.71637830    -0.01880
Br1526     Br  0.09149364  0.79867230  0.77577593    -0.01860
C1527       C  0.22166001  0.81515360  0.98149461    -0.02990
C1528       C  0.22249045  0.80312793  0.94918483     0.06690
C1529       C  0.25208815  0.79534384  0.93397209    -0.03100
C1530       C  0.27997949  0.79288244  0.95323037    -0.03100
C1531       C  0.27862048  0.80244674  0.98676976     0.06830
C1532       C  0.25042873  0.81800821  0.99917443    -0.03300
Br1533     Br  0.24880840  0.84005468  0.04145174    -0.01850
Br1534     Br  0.18136541  0.82315119  0.00405508    -0.01920
Br1535     Br  0.31812897  0.77364089  0.93308203    -0.01880
Br1536     Br  0.25335764  0.78298630  0.88806015    -0.01860
C1537       C  0.89547809  0.79361727  0.53377943    -0.02990
C1538       C  0.89413821  0.81825514  0.50916642     0.06690
C1539       C  0.89345010  0.85161107  0.51882413    -0.03100
C1540       C  0.89145211  0.86000876  0.55258736    -0.03100
C1541       C  0.89060455  0.83507825  0.57727500     0.06830
C1542       C  0.89210869  0.80170871  0.56719872    -0.03300
Br1543     Br  0.88948059  0.76584842  0.59824790    -0.01850
Br1544     Br  0.90453691  0.74823198  0.52198198    -0.01920
Br1545     Br  0.88715792  0.90593678  0.56434127    -0.01880
Br1546     Br  0.89485587  0.88584523  0.48596853    -0.01860
C1547       C  0.86783607  0.91434445  0.35109709    -0.02990
C1548       C  0.85511880  0.89322006  0.37555394     0.06690
C1549       C  0.83679243  0.90702480  0.40151080    -0.03100
C1550       C  0.82828491  0.94053840  0.40128509    -0.03100
C1551       C  0.84020944  0.96164196  0.37658079     0.06830
C1552       C  0.86099542  0.94859569  0.35205003    -0.03300
Br1553     Br  0.87852432  0.97764056  0.31879475    -0.01850
Br1554     Br  0.89408320  0.89621347  0.31625627    -0.01920
Br1555     Br  0.79717610  0.95647385  0.43302179    -0.01880
Br1556     Br  0.82223933  0.88029767  0.43757337    -0.01860
C1557       C  0.60463239  0.85180727  0.43873124    -0.02990
C1558       C  0.59486501  0.81996529  0.44915845     0.06690
C1559       C  0.58571318  0.79661259  0.42524794    -0.03100
C1560       C  0.59136363  0.80286933  0.39186264    -0.03100
C1561       C  0.59938109  0.83499439  0.38089020     0.06830
C1562       C  0.60523755  0.85972773  0.40472060    -0.03300
Br1563     Br  0.61744053  0.90352910  0.39065705    -0.01850
Br1564     Br  0.61957778  0.88358438  0.47047167    -0.01920
Br1565     Br  0.59168168  0.76545488  0.36310711    -0.01880
Br1566     Br  0.56520720  0.75531901  0.43805721    -0.01860
C1567       C  0.74691933  0.80699739  0.50430923    -0.02990
C1568       C  0.71661666  0.80054510  0.48954789     0.06690
C1569       C  0.71297500  0.80297398  0.45515806    -0.03100
C1570       C  0.74027353  0.80928160  0.43546181    -0.03100
C1571       C  0.77088198  0.81227669  0.45029550     0.06830
C1572       C  0.77350839  0.81468676  0.48455368    -0.03300
Br1573     Br  0.81388814  0.82660860  0.50487963    -0.01850
Br1574     Br  0.75429209  0.79993203  0.55083356    -0.01920
Br1575     Br  0.73621856  0.81056667  0.38822271    -0.01880
Br1576     Br  0.67188026  0.79499303  0.43417028    -0.01860
C1577       C  0.67596049  0.90384783  0.56404998    -0.02990
C1578       C  0.64652573  0.89233713  0.57817841     0.06690
C1579       C  0.62377378  0.91586109  0.58980066    -0.03100
C1580       C  0.63128478  0.95008997  0.58892655    -0.03100
C1581       C  0.66195620  0.96097715  0.57713209     0.06830
C1582       C  0.68389918  0.93754618  0.56411828    -0.03300
Br1583     Br  0.72590473  0.95112435  0.54650591    -0.01850
Br1584     Br  0.70536570  0.87453487  0.54206274    -0.01920
Br1585     Br  0.60130748  0.98154939  0.60751974    -0.01880
Br1586     Br  0.58318750  0.90110395  0.60900311    -0.01860
C1587       C  0.52915888  0.84841263  0.83251240    -0.02990
C1588       C  0.51543981  0.87347539  0.81260070     0.06690
C1589       C  0.53651057  0.89825393  0.80034717    -0.03100
C1590       C  0.57048325  0.89716074  0.80620173    -0.03100
C1591       C  0.58463946  0.87102863  0.82427451     0.06830
C1592       C  0.56346900  0.84705718  0.83804235    -0.03300
Br1593     Br  0.58184867  0.81183446  0.86373884    -0.01850
Br1594     Br  0.50132999  0.81479246  0.85066533    -0.01920
Br1595     Br  0.59720042  0.93243729  0.78950556    -0.01880
Br1596     Br  0.51844075  0.93481701  0.77613823    -0.01860
C1597       C  0.36519684  0.84735952  0.90049921    -0.02990
C1598       C  0.38321006  0.82810258  0.87816367     0.06690
C1599       C  0.40390059  0.80318120  0.89013814    -0.03100
C1600       C  0.40838548  0.79923558  0.92406131    -0.03100
C1601       C  0.39043337  0.81838096  0.94671921     0.06830
C1602       C  0.36776527  0.84159096  0.93459892    -0.03300
Br1603     Br  0.33625229  0.86130226  0.96357135    -0.01850
Br1604     Br  0.33453962  0.87928303  0.88394424    -0.01920
Br1605     Br  0.43779607  0.76548343  0.93932625    -0.01880
Br1606     Br  0.42576045  0.77334586  0.86049217    -0.01860
C1607       C  0.45816887  0.55891426  0.82009957    -0.02990
C1608       C  0.47443778  0.58918927  0.81764229     0.06690
C1609       C  0.45799989  0.61784410  0.82825312    -0.03100
C1610       C  0.42359229  0.61755077  0.83242613    -0.03100
C1611       C  0.40638174  0.58740121  0.83115068     0.06830
C1612       C  0.42517661  0.55808736  0.82981068    -0.03300
Br1613     Br  0.40867981  0.51769770  0.84742625    -0.01850
Br1614     Br  0.48164557  0.51860950  0.81191945    -0.01920
Br1615     Br  0.40071849  0.65747342  0.84322546    -0.01880
Br1616     Br  0.48339016  0.65531903  0.84196273    -0.01860
C1617       C  0.56200537  0.70035341  0.65818459    -0.02990
C1618       C  0.58638113  0.68686393  0.67854103     0.06690
C1619       C  0.61697569  0.70305000  0.67946492    -0.03100
C1620       C  0.62208162  0.73346921  0.66334307    -0.03100
C1621       C  0.59878698  0.74614926  0.64103729     0.06830
C1622       C  0.56846045  0.72901758  0.63876390    -0.03300
Br1623     Br  0.53510554  0.74421704  0.60956895    -0.01850
Br1624     Br  0.51938355  0.68009156  0.65768160    -0.01920
Br1625     Br  0.66028248  0.75900854  0.67492922    -0.01880
Br1626     Br  0.65308636  0.68285652  0.70211355    -0.01860
C1627       C  0.47607923  0.70246361  0.77328846    -0.02990
C1628       C  0.51008111  0.70613941  0.77787326     0.06690
C1629       C  0.52499876  0.73745874  0.77815009    -0.03100
C1630       C  0.50576707  0.76501177  0.77346561    -0.03100
C1631       C  0.47159282  0.76131215  0.77341176     0.06830
C1632       C  0.45659051  0.73010647  0.77385388    -0.03300
Br1633     Br  0.40961595  0.72431397  0.77015825    -0.01850
Br1634     Br  0.45541394  0.66108647  0.76113162    -0.01920
Br1635     Br  0.52735385  0.80627529  0.76297144    -0.01880
Br1636     Br  0.57202146  0.74330405  0.77884060    -0.01860
C1637       C  0.60149556  0.61026155  0.90161349    -0.02990
C1638       C  0.60127312  0.63629942  0.87794829     0.06690
C1639       C  0.59625054  0.66889376  0.88933274    -0.03100
C1640       C  0.59268386  0.67522867  0.92317734    -0.03100
C1641       C  0.59526670  0.64953669  0.94675102     0.06830
C1642       C  0.59697100  0.61684194  0.93549057    -0.03300
Br1643     Br  0.59149394  0.58096768  0.96602407    -0.01850
Br1644     Br  0.61042843  0.56526210  0.88882237    -0.01920
Br1645     Br  0.58113652  0.71945668  0.93693750    -0.01880
Br1646     Br  0.59309525  0.70582864  0.85936604    -0.01860
C1647       C  0.83999236  0.52804035  0.83959982    -0.02990
C1648       C  0.83572890  0.50664394  0.86690160     0.06690
C1649       C  0.83631850  0.52100591  0.89834761    -0.03100
C1650       C  0.84193647  0.55529268  0.90232438    -0.03100
C1651       C  0.84600035  0.57667257  0.87502178     0.06830
C1652       C  0.84541546  0.56249484  0.84348836    -0.03300
Br1653     Br  0.85349139  0.59011506  0.80558287    -0.01850
Br1654     Br  0.83737242  0.51066792  0.79646870    -0.01920
Br1655     Br  0.84236791  0.57287334  0.94573981    -0.01880
Br1656     Br  0.82660075  0.49418499  0.93623877    -0.01860
C1657       C  0.92241403  0.40994309  0.81896196    -0.02990
C1658       C  0.90652479  0.38129910  0.83078001     0.06690
C1659       C  0.92554497  0.35415796  0.84070655    -0.03100
C1660       C  0.95953936  0.35435221  0.83495407    -0.03100
C1661       C  0.97417186  0.38087345  0.81794529     0.06830
C1662       C  0.95598834  0.40944288  0.81185807    -0.03300
Br1663     Br  0.97748891  0.44782893  0.79393420    -0.01850
Br1664     Br  0.89903381  0.45061537  0.81472567    -0.01920
Br1665     Br  0.98634268  0.31860090  0.85017418    -0.01880
Br1666     Br  0.90490324  0.31625314  0.86061133    -0.01860
C1667       C  0.86037582  0.44796409  0.60805472    -0.02990
C1668       C  0.83807123  0.46104496  0.58502975     0.06690
C1669       C  0.82442586  0.43906266  0.56177635    -0.03100
C1670       C  0.83535608  0.40636569  0.55944557    -0.03100
C1671       C  0.85509038  0.39267700  0.58402869     0.06830
C1672       C  0.86740917  0.41360735  0.60867192    -0.03300
Br1673     Br  0.89354150  0.39495164  0.64317604    -0.01850
Br1674     Br  0.88011049  0.47650829  0.63964312    -0.01920
Br1675     Br  0.82371249  0.38080201  0.52154164    -0.01880
Br1676     Br  0.78809198  0.45133722  0.53472870    -0.01860
C1677       C  0.73357458  0.64348328  0.54990782    -0.02990
C1678       C  0.76041828  0.65132158  0.57084606     0.06690
C1679       C  0.75875187  0.68162907  0.58777985    -0.03100
C1680       C  0.73026196  0.70137342  0.58706193    -0.03100
C1681       C  0.70354248  0.69415742  0.56561629     0.06830
C1682       C  0.70577483  0.66459618  0.54720032    -0.03300
Br1683     Br  0.67056585  0.65214790  0.51830490    -0.01850
Br1684     Br  0.73413185  0.60435896  0.52347364    -0.01920
Br1685     Br  0.72825331  0.73678003  0.61881892    -0.01880
Br1686     Br  0.79714142  0.69840658  0.60983083    -0.01860
C1687       C  0.67297490  0.58175018  0.67024106    -0.02990
C1688       C  0.70607428  0.58871468  0.67547426     0.06690
C1689       C  0.71575089  0.59878357  0.70770310    -0.03100
C1690       C  0.69300754  0.59984515  0.73401723    -0.03100
C1691       C  0.65991097  0.59280986  0.72883445     0.06830
C1692       C  0.65008917  0.58509004  0.69612369    -0.03300
Br1693     Br  0.60530757  0.58066575  0.68447304    -0.01850
Br1694     Br  0.65859117  0.56946427  0.62666725    -0.01920
Br1695     Br  0.70683721  0.61179040  0.77773922    -0.01880
Br1696     Br  0.76002120  0.61111335  0.71768690    -0.01860
C1697       C  0.82032626  0.49894643  0.71436878    -0.02990
C1698       C  0.79022152  0.51170884  0.70485579     0.06690
C1699       C  0.76080030  0.49762586  0.71575402    -0.03100
C1700       C  0.76158784  0.47163709  0.73764376    -0.03100
C1701       C  0.79186003  0.45785882  0.74628201     0.06830
C1702       C  0.82103233  0.46956481  0.73222691    -0.03300
Br1703     Br  0.86163268  0.44680670  0.73821020    -0.01850
Br1704     Br  0.85976279  0.52341161  0.70542112    -0.01920
Br1705     Br  0.72063979  0.45543424  0.75524282    -0.01880
Br1706     Br  0.71909646  0.51264919  0.69994643    -0.01860
C1707       C  0.90940957  0.59549073  0.66119437    -0.02990
C1708       C  0.90069881  0.58612477  0.62905175     0.06690
C1709       C  0.92560161  0.57443032  0.60752862    -0.03100
C1710       C  0.95853856  0.57276543  0.61812323    -0.03100
C1711       C  0.96670119  0.58056925  0.65077532     0.06830
C1712       C  0.94118669  0.59046562  0.67260322    -0.03300
Br1713     Br  0.94868409  0.59935868  0.71886376    -0.01850
Br1714     Br  0.87927139  0.61957741  0.68928125    -0.01920
Br1715     Br  0.99275776  0.56247968  0.58724554    -0.01880
Br1716     Br  0.91572087  0.56116103  0.56317673    -0.01860
C1717       C  0.93516000  0.09066740  0.27531083    -0.02990
C1718       C  0.96113709  0.08034541  0.29640799     0.06690
C1719       C  0.95375757  0.07343718  0.32962066    -0.03100
C1720       C  0.92143620  0.07687313  0.34141489    -0.03100
C1721       C  0.89614577  0.08835554  0.32035206     0.06830
C1722       C  0.90423451  0.09775203  0.28805347    -0.03300
Br1723     Br  0.87468784  0.12352951  0.26110646    -0.01850
Br1724     Br  0.93964831  0.09535759  0.22790837    -0.01920
Br1725     Br  0.91352378  0.06884119  0.38770607    -0.01880
Br1726     Br  0.98766738  0.06051490  0.35982449    -0.01860
C1727       C  0.09681732  0.10279355  0.39335359    -0.02990
C1728       C  0.09735644  0.12694541  0.36802132     0.06690
C1729       C  0.09653895  0.16058339  0.37691905    -0.03100
C1730       C  0.09229253  0.16970145  0.40984058    -0.03100
C1731       C  0.09439966  0.14600127  0.43528866     0.06830
C1732       C  0.09618855  0.11231553  0.42687823    -0.03300
Br1733     Br  0.09968172  0.07948386  0.46099892    -0.01850
Br1734     Br  0.10003011  0.05665541  0.38234926    -0.01920
Br1735     Br  0.08140029  0.21517317  0.41956892    -0.01880
Br1736     Br  0.10248464  0.19541278  0.34514633    -0.01860
C1737       C  0.08465690  0.37210166  0.29542972    -0.02990
C1738       C  0.09287054  0.37364266  0.32891960     0.06690
C1739       C  0.06753917  0.37786664  0.35244776    -0.03100
C1740       C  0.03467745  0.38112764  0.34238470    -0.03100
C1741       C  0.02699540  0.38204845  0.30868262     0.06830
C1742       C  0.05282757  0.37909235  0.28526362    -0.03300
Br1743     Br  0.04552009  0.38277635  0.23817715    -0.01850
Br1744     Br  0.11543916  0.35694366  0.26277149    -0.01920
Br1745     Br  0.00023743  0.38134465  0.37476125    -0.01880
Br1746     Br  0.07712352  0.37536097  0.39878120    -0.01860
C1747       C  0.96299407  0.22932899  0.31005370    -0.02990
C1748       C  0.97739305  0.26010553  0.30271893     0.06690
C1749       C  0.01128870  0.26204352  0.29844048    -0.03100
C1750       C  0.02882307  0.23393705  0.29078552    -0.03100
C1751       C  0.01313434  0.20323292  0.29276955     0.06830
C1752       C  0.98155436  0.20072179  0.30589598    -0.03300
Br1753     Br  0.96382680  0.15859028  0.31756633    -0.01850
Br1754     Br  0.91762003  0.22515499  0.32157946    -0.01920
Br1755     Br  0.07262743  0.23884924  0.27359427    -0.01880
Br1756     Br  0.03393051  0.30275327  0.30303220    -0.01860
C1757       C  0.88301374  0.30663024  0.39003217    -0.02990
C1758       C  0.89150631  0.33898319  0.38016397     0.06690
C1759       C  0.90051422  0.36180936  0.40528572    -0.03100
C1760       C  0.90123527  0.35213170  0.43897276    -0.03100
C1761       C  0.89501407  0.31906376  0.44809503     0.06830
C1762       C  0.88822634  0.29609147  0.42257137    -0.03300
Br1763     Br  0.88840925  0.24892670  0.43068453    -0.01850
Br1764     Br  0.86124564  0.27647265  0.36061828    -0.01920
Br1765     Br  0.90999022  0.38447674  0.47247664    -0.01880
Br1766     Br  0.90891226  0.40752219  0.39464703    -0.01860
C1767       C  0.08970936  0.28493957  0.91534298    -0.02990
C1768       C  0.10210179  0.30798898  0.93801790     0.06690
C1769       C  0.11502721  0.33816159  0.92643866    -0.03100
C1770       C  0.11671166  0.34445098  0.89222991    -0.03100
C1771       C  0.10395362  0.32138140  0.86948091     0.06830
C1772       C  0.08931553  0.29233985  0.88176296    -0.03300
Br1773     Br  0.06462204  0.26395119  0.85415906    -0.01850
Br1774     Br  0.07303127  0.24241098  0.92987811    -0.01920
Br1775     Br  0.13760074  0.38419504  0.87648636    -0.01880
Br1776     Br  0.13337966  0.36918449  0.95718330    -0.01860
C1777       C  0.06043909  0.22879353  0.13324324    -0.02990
C1778       C  0.08956665  0.24741171  0.13600041     0.06690
C1779       C  0.11053231  0.24068284  0.16250899    -0.03100
C1780       C  0.10594736  0.21242656  0.18203154    -0.03100
C1781       C  0.07740779  0.19276909  0.17882917     0.06830
C1782       C  0.05404482  0.20204575  0.15500831    -0.03300
Br1783     Br  0.01284091  0.17906273  0.15250029    -0.01850
Br1784     Br  0.02893635  0.23995528  0.10021298    -0.01920
Br1785     Br  0.14111989  0.19977456  0.21101211    -0.01880
Br1786     Br  0.14593266  0.27084394  0.17233482    -0.01860
C1787       C  0.12252666  0.40780122  0.06553579    -0.02990
C1788       C  0.14325683  0.38194542  0.07692784     0.06690
C1789       C  0.17375209  0.39057961  0.09041932    -0.03100
C1790       C  0.18460160  0.42345856  0.08931551    -0.03100
C1791       C  0.16322289  0.44954344  0.08017967     0.06830
C1792       C  0.13211155  0.44133779  0.06820617    -0.03300
Br1793     Br  0.10210936  0.47586317  0.05629549    -0.01850
Br1794     Br  0.07985044  0.39851612  0.04764586    -0.01920
Br1795     Br  0.23053741  0.43110600  0.09774617    -0.01880
Br1796     Br  0.20173032  0.35824449  0.11123229    -0.01860
C1797       C  0.39571133  0.34704657  0.01615847    -0.02990
C1798       C  0.39693844  0.31331007  0.00785046     0.06690
C1799       C  0.39635152  0.28938997  0.03335846    -0.03100
C1800       C  0.39006137  0.29869699  0.06591703    -0.03100
C1801       C  0.38838736  0.33233117  0.07433632     0.06830
C1802       C  0.39153100  0.35647176  0.04927838    -0.03300
Br1803     Br  0.38762870  0.40270448  0.06003071    -0.01850
Br1804     Br  0.39885780  0.38049992  0.98259228    -0.01920
Br1805     Br  0.38305858  0.26450836  0.09819009    -0.01880
Br1806     Br  0.40529080  0.24329886  0.02431791    -0.01860
C1807       C  0.24624331  0.31299204  0.94186475    -0.02990
C1808       C  0.27642663  0.30936480  0.95711672     0.06690
C1809       C  0.27819132  0.30779942  0.99146568    -0.03100
C1810       C  0.25010473  0.30213784  0.00985942    -0.03100
C1811       C  0.22048247  0.29762324  0.99322504     0.06830
C1812       C  0.21852492  0.30325788  0.95907961    -0.03300
Br1813     Br  0.18083998  0.29224097  0.93385732    -0.01850
Br1814     Br  0.24280042  0.32966635  0.89749571    -0.01920
Br1815     Br  0.25397309  0.29453672  0.05669376    -0.01880
Br1816     Br  0.31874326  0.31332220  0.01337193    -0.01860
C1817       C  0.32629227  0.43565688  0.89894047    -0.02990
C1818       C  0.33820663  0.45578440  0.87320401     0.06690
C1819       C  0.35574320  0.44025117  0.84726650    -0.03100
C1820       C  0.36279034  0.40616976  0.84848020    -0.03100
C1821       C  0.35268066  0.38724990  0.87550065     0.06830
C1822       C  0.33531550  0.40237812  0.90122356    -0.03300
Br1823     Br  0.32259567  0.37758113  0.93956501    -0.01850
Br1824     Br  0.29223101  0.45101591  0.92759171    -0.01920
Br1825     Br  0.38617037  0.38485861  0.81312419    -0.01880
Br1826     Br  0.36697612  0.46327880  0.80771814    -0.01860
C1827       C  0.35496809  0.94875133  0.06101056    -0.02990
C1828       C  0.34243638  0.96069123  0.09081666     0.06690
C1829       C  0.33806185  0.93811734  0.11709165    -0.03100
C1830       C  0.34263661  0.90389537  0.11274882    -0.03100
C1831       C  0.35349171  0.89168756  0.08235249     0.06830
C1832       C  0.36209488  0.91487178  0.05732565    -0.03300
Br1833     Br  0.38426036  0.90166959  0.01769668    -0.01850
Br1834     Br  0.35989994  0.97834535  0.02414712    -0.01920
Br1835     Br  0.33642502  0.87407252  0.14941309    -0.01880
Br1836     Br  0.32760099  0.95378069  0.15994183    -0.01860
C1837       C  0.24923880  0.15202952  0.04473979    -0.02990
C1838       C  0.25975704  0.14758540  0.07791911     0.06690
C1839       C  0.24062342  0.16340640  0.10278978    -0.03100
C1840       C  0.21135985  0.18018900  0.09494457    -0.03100
C1841       C  0.20168360  0.18526315  0.06222208     0.06830
C1842       C  0.22103525  0.17115902  0.03714388    -0.03300
Br1843     Br  0.20971339  0.17955881  0.99195651    -0.01850
Br1844     Br  0.27441303  0.13467168  0.00849985    -0.01920
Br1845     Br  0.18320839  0.19597972  0.12956773    -0.01880
Br1846     Br  0.25407709  0.16563494  0.14817182    -0.01860
C1847       C  0.21205481  0.07899107  0.21179688    -0.02990
C1848       C  0.20653224  0.08038899  0.17717070     0.06690
C1849       C  0.17445897  0.08422862  0.16606899    -0.03100
C1850       C  0.14861754  0.08738082  0.18886047    -0.03100
C1851       C  0.15377749  0.08387409  0.22326099     0.06830
C1852       C  0.18568463  0.07900769  0.23434522    -0.03300
Br1853     Br  0.19320405  0.07443897  0.28092662    -0.01850
Br1854     Br  0.25538661  0.07837158  0.22986254    -0.01920
Br1855     Br  0.10630581  0.09758642  0.17186180    -0.01880
Br1856     Br  0.16633400  0.08845759  0.11949692    -0.01860
C1857       C  0.42348340  0.11548076  0.11675965    -0.02990
C1858       C  0.40530212  0.08677714  0.12415498     0.06690
C1859       C  0.42206986  0.05736936  0.13205439    -0.03100
C1860       C  0.45616113  0.05773150  0.13559635    -0.03100
C1861       C  0.47322690  0.08762588  0.13393613     0.06830
C1862       C  0.45758805  0.11563442  0.12118880    -0.03300
Br1863     Br  0.48356325  0.15266649  0.10714643    -0.01850
Br1864     Br  0.40159006  0.15494294  0.10245384    -0.01920
Br1865     Br  0.48054900  0.01730814  0.13846021    -0.01880
Br1866     Br  0.39909219  0.01636035  0.13799440    -0.01860
C1867       C  0.35339663  0.01505137  0.38799574    -0.02990
C1868       C  0.32671901  0.00486506  0.36878372     0.06690
C1869       C  0.31050597  0.02926818  0.34952803    -0.03100
C1870       C  0.32183418  0.06220463  0.34820341    -0.03100
C1871       C  0.34794454  0.07266777  0.36824611     0.06830
C1872       C  0.36464439  0.04814237  0.38705444    -0.03300
Br1873     Br  0.40369969  0.05801624  0.41188834    -0.01850
Br1874     Br  0.37132682  0.98514220  0.42016143    -0.01920
Br1875     Br  0.30152137  0.09226269  0.31723763    -0.01880
Br1876     Br  0.27057035  0.02022554  0.32629380    -0.01860
C1877       C  0.31620814  0.98134590  0.25513607    -0.02990
C1878       C  0.28613983  0.96693146  0.26342296     0.06690
C1879       C  0.25749021  0.97483535  0.24652421    -0.03100
C1880       C  0.25982282  0.99235533  0.21742408    -0.03100
C1881       C  0.29030586  0.00596492  0.20793868     0.06830
C1882       C  0.31811932  0.00206589  0.22783383    -0.03300
Br1883     Br  0.35933806  0.02263659  0.21703709    -0.01850
Br1884     Br  0.35410095  0.97405796  0.28227795    -0.01920
Br1885     Br  0.22043791  0.99666894  0.19148612    -0.01880
Br1886     Br  0.21468933  0.96263279  0.26299914    -0.01860
C1887       C  0.41087663  0.86433011  0.29772216    -0.02990
C1888       C  0.40179920  0.87908465  0.32767217     0.06690
C1889       C  0.42670132  0.89474078  0.34643718    -0.03100
C1890       C  0.45992913  0.89464440  0.33578262    -0.03100
C1891       C  0.46871400  0.88041732  0.30538171     0.06830
C1892       C  0.44298119  0.86724498  0.28560653    -0.03300
Br1893     Br  0.44972091  0.85400017  0.24035950    -0.01850
Br1894     Br  0.38012517  0.83685683  0.27395838    -0.01920
Br1895     Br  0.49325560  0.91376897  0.36308788    -0.01880
Br1896     Br  0.41589780  0.91697273  0.38667691    -0.01860
C1897       C  0.01505516  0.96344129  0.23603912    -0.02990
C1898       C  0.04539312  0.94733233  0.23582975     0.06690
C1899       C  0.07287523  0.96685065  0.22717953    -0.03100
C1900       C  0.06907325  0.99667322  0.21013223    -0.03100
C1901       C  0.03962605  0.01414934  0.21199446     0.06830
C1902       C  0.01225549  0.99656917  0.22466309    -0.03300
Br1903     Br  0.97093328  0.01806501  0.22734234    -0.01850
Br1904     Br  0.97852946  0.94143481  0.25586929    -0.01920
Br1905     Br  0.10576149  0.01565828  0.18765074    -0.01880
Br1906     Br  0.11619323  0.95062631  0.23425854    -0.01860
C1907       C  0.95779935  0.89086826  0.11296987    -0.02990
C1908       C  0.96460383  0.88565840  0.14659892     0.06690
C1909       C  0.93757838  0.87916673  0.16803699    -0.03100
C1910       C  0.90614076  0.87300898  0.15569572    -0.03100
C1911       C  0.89920624  0.87825706  0.12217669     0.06830
C1912       C  0.92535714  0.88778342  0.10099950    -0.03300
Br1913     Br  0.91770896  0.89376836  0.05460084    -0.01850
Br1914     Br  0.99264647  0.90134734  0.08276758    -0.01920
Br1915     Br  0.87356083  0.85576491  0.18590674    -0.01880
Br1916     Br  0.94198347  0.87843075  0.21540962    -0.01860
C1917       C  0.14483076  0.87790936  0.26311846    -0.02990
C1918       C  0.15366382  0.87709594  0.22936454     0.06690
C1919       C  0.18680276  0.87867038  0.22125266    -0.03100
C1920       C  0.21082190  0.88068530  0.24616594    -0.03100
C1921       C  0.20198768  0.88133804  0.28047700     0.06830
C1922       C  0.16848207  0.88027499  0.28832362    -0.03300
Br1923     Br  0.15449537  0.87995951  0.33369275    -0.01850
Br1924     Br  0.09973894  0.87620273  0.27531241    -0.01920
Br1925     Br  0.25551705  0.88387049  0.23099269    -0.01880
Br1926     Br  0.19898301  0.87660641  0.17539006    -0.01860
C1927       C  0.09558867  0.85602289  0.05472331    -0.02990
C1928       C  0.10606932  0.83521685  0.08087495     0.06690
C1929       C  0.11731944  0.80339065  0.07287983    -0.03100
C1930       C  0.11260593  0.79060288  0.04114868    -0.03100
C1931       C  0.10318397  0.81141784  0.01460933     0.06830
C1932       C  0.09485567  0.84444856  0.02183901    -0.03300
Br1933     Br  0.08252915  0.87438246  0.98710926    -0.01850
Br1934     Br  0.08492857  0.90173140  0.06283672    -0.01920
Br1935     Br  0.11631108  0.74322919  0.03605981    -0.01880
Br1936     Br  0.14200825  0.77740312  0.10385333    -0.01860
C1937       C  0.93337148  0.46594271  0.20781849    -0.02990
C1938       C  0.95860041  0.45000398  0.22413496     0.06690
C1939       C  0.97851643  0.47047719  0.24466337    -0.03100
C1940       C  0.97321529  0.50509683  0.24706560    -0.03100
C1941       C  0.94468872  0.51873517  0.23392702     0.06830
C1942       C  0.92240808  0.49642296  0.21900852    -0.03300
Br1943     Br  0.87783857  0.50797750  0.20986750    -0.01850
Br1944     Br  0.92230847  0.45312303  0.16403759    -0.01920
Br1945     Br  0.00350004  0.53313244  0.26999322    -0.01880
Br1946     Br  0.01280943  0.45233468  0.27031419    -0.01860
C1947       C  0.05571567  0.58853273  0.16923133    -0.02990
C1948       C  0.02923650  0.58172964  0.14760541     0.06690
C1949       C  0.03673998  0.57548961  0.11427066    -0.03100
C1950       C  0.06948176  0.57776850  0.10279756    -0.03100
C1951       C  0.09518623  0.58772857  0.12409150     0.06830
C1952       C  0.08726110  0.59490328  0.15701533    -0.03300
Br1953     Br  0.11818507  0.61603077  0.18590711    -0.01850
Br1954     Br  0.05043819  0.58788661  0.21657290    -0.01920
Br1955     Br  0.07815711  0.56995429  0.05679082    -0.01880
Br1956     Br  0.00270722  0.56334652  0.08400872    -0.01860
C1957       C  0.01131711  0.70348117  0.14329166    -0.02990
C1958       C  0.97756077  0.70595741  0.14799266     0.06690
C1959       C  0.96187126  0.73605426  0.14109392    -0.03100
C1960       C  0.98066873  0.76476861  0.14130907    -0.03100
C1961       C  0.01441554  0.76252321  0.14578399     0.06830
C1962       C  0.02995474  0.73211333  0.14065387    -0.03300
Br1963     Br  0.07625688  0.72869038  0.13283282    -0.01850
Br1964     Br  0.03207924  0.66156327  0.14069211    -0.01920
Br1965     Br  0.96046033  0.80662587  0.13572676    -0.01880
Br1966     Br  0.91519400  0.73930394  0.13483804    -0.01860
C1967       C  0.92196466  0.64251793  0.05951496    -0.02990
C1968       C  0.89396801  0.63288557  0.07767663     0.06690
C1969       C  0.86447319  0.62835637  0.06096025    -0.03100
C1970       C  0.86285793  0.63380451  0.02667393    -0.03100
C1971       C  0.89038667  0.64503828  0.00845635     0.06830
C1972       C  0.92005043  0.64893479  0.02543220    -0.03300
Br1973     Br  0.95803388  0.66492563  0.00282436    -0.01850
Br1974     Br  0.96312509  0.64865817  0.08152774    -0.01920
Br1975     Br  0.82294180  0.62363776  0.00496092    -0.01880
Br1976     Br  0.82653934  0.61337289  0.08501043    -0.01860
C1977       C  0.91472092  0.75707511  0.28454210    -0.02990
C1978       C  0.90584606  0.74829142  0.31669096     0.06690
C1979       C  0.90737242  0.71453112  0.32559078    -0.03100
C1980       C  0.91552985  0.68982374  0.30249298    -0.03100
C1981       C  0.92063598  0.69808330  0.26917412     0.06830
C1982       C  0.92249483  0.73233290  0.26115483    -0.03300
Br1983     Br  0.93896533  0.74628336  0.21926105    -0.01850
Br1984     Br  0.91502200  0.80309010  0.27248987    -0.01920
Br1985     Br  0.91988569  0.64498987  0.31756214    -0.01880
Br1986     Br  0.89724956  0.70130277  0.36956484    -0.01860
C1987       C  0.71462828  0.51845132  0.46910738    -0.02990
C1988       C  0.73883382  0.52583572  0.44482789     0.06690
C1989       C  0.77171642  0.52166143  0.45241912    -0.03100
C1990       C  0.78056231  0.51995359  0.48535126    -0.03100
C1991       C  0.75589726  0.52265682  0.51047671     0.06830
C1992       C  0.72325440  0.51742543  0.50219326    -0.03300
Br1993     Br  0.69038605  0.50882262  0.53540870    -0.01850
Br1994     Br  0.66974746  0.50819281  0.45815546    -0.01920
Br1995     Br  0.82704945  0.51446491  0.49379204    -0.01880
Br1996     Br  0.80483487  0.51810151  0.41841809    -0.01860
C1997       C  0.67720797  0.40143355  0.39164176    -0.02990
C1998       C  0.64824815  0.38906546  0.37769485     0.06690
C1999       C  0.62490170  0.41208483  0.36627091    -0.03100
C2000       C  0.63132515  0.44663089  0.36723343    -0.03100
C2001       C  0.66161536  0.45861686  0.37880795     0.06830
C2002       C  0.68392366  0.43551285  0.39210769    -0.03300
Br2003     Br  0.72387621  0.44994917  0.41298507    -0.01850
Br2004     Br  0.70735892  0.37237471  0.41289352    -0.01920
Br2005     Br  0.59844697  0.47717157  0.35291413    -0.01880
Br2006     Br  0.58443660  0.39618100  0.34810757    -0.01860
C2007       C  0.84563386  0.58077905  0.25656550    -0.02990
C2008       C  0.83761315  0.58365664  0.22280582     0.06690
C2009       C  0.80484109  0.58009891  0.21393857    -0.03100
C2010       C  0.78033110  0.57569508  0.23829801    -0.03100
C2011       C  0.78830554  0.57463066  0.27264130     0.06830
C2012       C  0.82148776  0.57635566  0.28118847    -0.03300
Br2013     Br  0.83422896  0.57503886  0.32684860    -0.01850
Br2014     Br  0.89009396  0.58261266  0.26980798    -0.01920
Br2015     Br  0.73608973  0.57034031  0.22279774    -0.01880
Br2016     Br  0.79372684  0.58226213  0.16800789    -0.01860
C2017       C  0.73344934  0.68431025  0.35944525    -0.02990
C2018       C  0.73101626  0.65505980  0.37807360     0.06690
C2019       C  0.75563207  0.64925177  0.40180715    -0.03100
C2020       C  0.78291494  0.67091614  0.40534672    -0.03100
C2021       C  0.78611755  0.69977601  0.38565664     0.06830
C2022       C  0.76083867  0.70567060  0.36212493    -0.03300
Br2023     Br  0.76349692  0.74120335  0.33032261    -0.01850
Br2024     Br  0.69769665  0.69590341  0.33078659    -0.01920
Br2025     Br  0.81622928  0.65940044  0.43679219    -0.01880
Br2026     Br  0.75254652  0.61161484  0.43022705    -0.01860
C2027       C  0.56710942  0.59732837  0.34731738    -0.02990
C2028       C  0.59188684  0.59138513  0.32368825     0.06690
C2029       C  0.58280593  0.58349462  0.29114375    -0.03100
C2030       C  0.54978011  0.57981039  0.28285686    -0.03100
C2031       C  0.52478356  0.58569326  0.30656981     0.06830
C2032       C  0.53379565  0.59471594  0.33876288    -0.03300
Br2033     Br  0.50078509  0.60735382  0.37024445    -0.01850
Br2034     Br  0.57851686  0.61257710  0.39071500    -0.01920
Br2035     Br  0.53980656  0.56900919  0.23736430    -0.01880
Br2036     Br  0.61490853  0.57860806  0.25638235    -0.01860
C2037       C  0.76781792  0.43328340  0.00087140    -0.02990
C2038       C  0.73495709  0.43015826  0.00940838     0.06690
C2039       C  0.71143750  0.42429284  0.98380969    -0.03100
C2040       C  0.72098244  0.42522264  0.95077791    -0.03100
C2041       C  0.75419743  0.42396099  0.94303448     0.06830
C2042       C  0.77755618  0.42496705  0.96917050    -0.03300
Br2043     Br  0.82245272  0.41036178  0.96542663    -0.01850
Br2044     Br  0.79999287  0.45044190  0.03115072    -0.01920
Br2045     Br  0.68791015  0.42752550  0.91688063    -0.01880
Br2046     Br  0.66614699  0.41181402  0.99084969    -0.01860
C2047       C  0.64168145  0.52301562  0.11893502    -0.02990
C2048       C  0.64811247  0.50365696  0.09074479     0.06690
C2049       C  0.64964933  0.51966519  0.06002910    -0.03100
C2050       C  0.64628089  0.55415093  0.05776799    -0.03100
C2051       C  0.63832086  0.57311855  0.08565145     0.06830
C2052       C  0.63603184  0.55737811  0.11638022    -0.03300
Br2053     Br  0.62619027  0.58309020  0.15498208    -0.01850
Br2054     Br  0.64216851  0.50304440  0.16138847    -0.01920
Br2055     Br  0.65797283  0.57599621  0.01737450    -0.01880
Br2056     Br  0.65846790  0.49475758  0.02084557    -0.01860
C2057       C  0.80122725  0.38020948  0.24059926    -0.02990
C2058       C  0.83468245  0.38290908  0.23403346     0.06690
C2059       C  0.84432035  0.38828342  0.20109772    -0.03100
C2060       C  0.82146523  0.39277528  0.17540324    -0.03100
C2061       C  0.78781886  0.38831402  0.18133754     0.06830
C2062       C  0.77807052  0.38184302  0.21469967    -0.03300
Br2063     Br  0.73311633  0.37520879  0.22679512    -0.01850
Br2064     Br  0.78765857  0.37274534  0.28546054    -0.01920
Br2065     Br  0.83700801  0.40298327  0.13184352    -0.01880
Br2066     Br  0.88930508  0.38495562  0.19057300    -0.01860
C2067       C  0.66739185  0.45845665  0.22457805    -0.02990
C2068       C  0.69687171  0.45396264  0.20749118     0.06690
C2069       C  0.72607239  0.46860891  0.21808816    -0.03100
C2070       C  0.72578636  0.48722629  0.24607837    -0.03100
C2071       C  0.69546701  0.49761160  0.25904809     0.06830
C2072       C  0.66628439  0.48230390  0.24932814    -0.03300
Br2073     Br  0.62582453  0.49193187  0.27115611    -0.01850
Br2074     Br  0.62861682  0.43411933  0.21266519    -0.01920
Br2075     Br  0.76798491  0.49548382  0.26626856    -0.01880
Br2076     Br  0.76710191  0.46563386  0.19429206    -0.01860
C2077       C  0.56774510  0.38490499  0.10605805    -0.02990
C2078       C  0.59200536  0.37272055  0.12791071     0.06690
C2079       C  0.58212377  0.36349083  0.15989256    -0.03100
C2080       C  0.55029789  0.36991664  0.17099572    -0.03100
C2081       C  0.52507253  0.37861110  0.14853607     0.06830
C2082       C  0.53442797  0.38642538  0.11585677    -0.03300
Br2083     Br  0.50227594  0.39997415  0.08406155    -0.01850
Br2084     Br  0.57911827  0.40055665  0.06259956    -0.01920
Br2085     Br  0.54386222  0.36950341  0.21825899    -0.01880
Br2086     Br  0.61099241  0.33922470  0.18877627    -0.01860
C2087       C  0.97510186  0.24746085  0.00371574    -0.02990
C2088       C  0.96403702  0.21846733  0.01902649     0.06690
C2089       C  0.98740580  0.19291675  0.02615122    -0.03100
C2090       C  0.02096818  0.19842435  0.02198717    -0.03100
C2091       C  0.03177800  0.22874078  0.01030167     0.06830
C2092       C  0.00872665  0.25235117  0.99889301    -0.03300
Br2093     Br  0.02270236  0.29315793  0.97860999    -0.01850
Br2094     Br  0.94496422  0.28218290  0.99219231    -0.01920
Br2095     Br  0.05267486  0.16582598  0.03571686    -0.01880
Br2096     Br  0.97637465  0.14903628  0.04097008    -0.01860
C2097       C  0.87080775  0.11662303  0.93910159    -0.02990
C2098       C  0.89695521  0.13446972  0.95322533     0.06690
C2099       C  0.92418927  0.14167367  0.93333374    -0.03100
C2100       C  0.92449767  0.13276334  0.89977587    -0.03100
C2101       C  0.89635738  0.11957584  0.88449437     0.06830
C2102       C  0.86966643  0.11079348  0.90470525    -0.03300
Br2103     Br  0.83172962  0.09073714  0.88535545    -0.01850
Br2104     Br  0.83696489  0.09960525  0.96744853    -0.01920
Br2105     Br  0.96385144  0.13908986  0.87492566    -0.01880
Br2106     Br  0.96055017  0.16541074  0.95146420    -0.01860
C2107       C  0.89631419  0.25747516  0.13041788    -0.02990
C2108       C  0.89367549  0.22376838  0.13937241     0.06690
C2109       C  0.90570562  0.21438005  0.17020628    -0.03100
C2110       C  0.91610921  0.23868119  0.19303100    -0.03100
C2111       C  0.91436996  0.27305787  0.18566350     0.06830
C2112       C  0.90708214  0.28175616  0.15294849    -0.03300
Br2113     Br  0.91353576  0.32620557  0.13756769    -0.01850
Br2114     Br  0.88743318  0.27054429  0.08621857    -0.01920
Br2115     Br  0.93661577  0.22403273  0.23266095    -0.01880
Br2116     Br  0.90796662  0.16816397  0.18095946    -0.01860
C2117       C  0.76923679  0.32942333  0.06078119    -0.02990
C2118       C  0.73613107  0.31985816  0.06562167     0.06690
C2119       C  0.72804159  0.28685703  0.05908825    -0.03100
C2120       C  0.75261795  0.26364234  0.05065030    -0.03100
C2121       C  0.78640500  0.27277151  0.04887287     0.06830
C2122       C  0.79367249  0.30664585  0.05100694    -0.03300
Br2123     Br  0.83667724  0.32259927  0.03965871    -0.01850
Br2124     Br  0.78312133  0.37290220  0.07076372    -0.01920
Br2125     Br  0.73847671  0.21990963  0.03880822    -0.01880
Br2126     Br  0.68284042  0.27368316  0.06183124    -0.01860
C2127       C  0.85767558  0.01962899  0.07248338    -0.02990
C2128       C  0.82518215  0.01082456  0.07977247     0.06690
C2129       C  0.80289553  0.03635302  0.08815591    -0.03100
C2130       C  0.81376606  0.06876077  0.09368150    -0.03100
C2131       C  0.84545534  0.07832571  0.08398540     0.06830
C2132       C  0.86759187  0.05316304  0.07367926    -0.03300
Br2133     Br  0.91272272  0.06319161  0.06352581    -0.01850
Br2134     Br  0.88902455  0.98596827  0.06150233    -0.01920
Br2135     Br  0.78509583  0.09843800  0.11710940    -0.01880
Br2136     Br  0.75617862  0.02871313  0.08905581    -0.01860
C2137       C  0.50464678  0.20248491  0.90591890    -0.02990
C2138       C  0.52863379  0.22340494  0.92134077     0.06690
C2139       C  0.51757813  0.24763185  0.94322566    -0.03100
C2140       C  0.48381900  0.25063202  0.94954903    -0.03100
C2141       C  0.46059529  0.22907929  0.93472320     0.06830
C2142       C  0.47165417  0.20358119  0.91504271    -0.03300
Br2143     Br  0.44031163  0.17226542  0.89788748    -0.01850
Br2144     Br  0.51442912  0.17432318  0.86886070    -0.01920
Br2145     Br  0.46970995  0.28540878  0.97813945    -0.01880
Br2146     Br  0.54794253  0.27821901  0.96295343    -0.01860
C2147       C  0.58387389  0.16575825  0.02935415    -0.02990
C2148       C  0.59573534  0.14289429  0.00622573     0.06690
C2149       C  0.60556754  0.11148024  0.01755401    -0.03100
C2150       C  0.60751870  0.10480687  0.05185564    -0.03100
C2151       C  0.59809129  0.12895017  0.07537316     0.06830
C2152       C  0.58526782  0.15918667  0.06330131    -0.03300
Br2153     Br  0.56777671  0.19244588  0.09206287    -0.01850
Br2154     Br  0.56344801  0.20599951  0.01421802    -0.01920
Br2155     Br  0.62565738  0.06330648  0.06600529    -0.01880
Br2156     Br  0.61838970  0.07823398  0.98621112    -0.01860
C2157       C  0.75117336  0.16527943  0.93625531    -0.02990
C2158       C  0.72123195  0.15939593  0.95190831     0.06690
C2159       C  0.71971740  0.14713767  0.98398831    -0.03100
C2160       C  0.74828950  0.14302260  0.00173059    -0.03100
C2161       C  0.77749258  0.15610251  0.98873833     0.06830
C2162       C  0.77939780  0.16471863  0.95489152    -0.03300
Br2163     Br  0.81889724  0.17979197  0.93336947    -0.01850
Br2164     Br  0.75353431  0.17933290  0.89065781    -0.01920
Br2165     Br  0.74544255  0.12316289  0.04475818    -0.01880
Br2166     Br  0.67864477  0.13965684  0.00512672    -0.01860
C2167       C  0.62025183  0.04786074  0.86546874    -0.02990
C2168       C  0.64575210  0.07090419  0.87108686     0.06690
C2169       C  0.67595361  0.05914559  0.88235187    -0.03100
C2170       C  0.68058271  0.02521810  0.88789682    -0.03100
C2171       C  0.65616896  0.00179495  0.87952292     0.06830
C2172       C  0.62545084  0.01350808  0.86956385    -0.03300
Br2173     Br  0.59093464  0.98269192  0.86059696    -0.01850
Br2174     Br  0.57864669  0.06341317  0.84996475    -0.01920
Br2175     Br  0.72120198  0.01093559  0.90711683    -0.01880
Br2176     Br  0.71170004  0.08905135  0.89020887    -0.01860
C2177       C  0.74691689  0.31028047  0.90638347    -0.02990
C2178       C  0.76233209  0.31279906  0.87477924     0.06690
C2179       C  0.74870533  0.29238602  0.84953152    -0.03100
C2180       C  0.72023516  0.27274198  0.85504762    -0.03100
C2181       C  0.70562054  0.26971502  0.88650257     0.06830
C2182       C  0.71946462  0.28883569  0.91209535    -0.03300
Br2183     Br  0.70164510  0.28464853  0.95587757    -0.01850
Br2184     Br  0.76390703  0.33431831  0.94352175    -0.01920
Br2185     Br  0.69976857  0.25107406  0.81809766    -0.01880
Br2186     Br  0.76895183  0.28835012  0.80669949    -0.01860
C2187       C  0.52248269  0.49570623  0.72773155    -0.02990
C2188       C  0.55201686  0.51343668  0.72749604     0.06690
C2189       C  0.58148936  0.49600031  0.73025849    -0.03100
C2190       C  0.58175403  0.46180361  0.73061422    -0.03100
C2191       C  0.55233060  0.44331033  0.73296219     0.06830
C2192       C  0.52259916  0.46097604  0.73186441    -0.03300
Br2193     Br  0.48188323  0.43790831  0.73346445    -0.01850
Br2194     Br  0.48204496  0.51935932  0.72286696    -0.01920
Br2195     Br  0.62350346  0.44249611  0.72070687    -0.01880
Br2196     Br  0.62289716  0.51804930  0.73586524    -0.01860
C2197       C  0.40992399  0.37249302  0.65927006    -0.02990
C2198       C  0.40232544  0.37722061  0.62579325     0.06690
C2199       C  0.42815741  0.38445859  0.60347024    -0.03100
C2200       C  0.46097128  0.38666343  0.61436205    -0.03100
C2201       C  0.46883204  0.38054108  0.64766598     0.06830
C2202       C  0.44243303  0.37377392  0.67009879    -0.03300
Br2203     Br  0.44848592  0.36406792  0.71665641    -0.01850
Br2204     Br  0.37609979  0.36441399  0.69197759    -0.01920
Br2205     Br  0.49504775  0.39489714  0.58245724    -0.01880
Br2206     Br  0.41948897  0.38837224  0.55698812    -0.01860
C2207       C  0.59902795  0.24800972  0.81928610    -0.02990
C2208       C  0.59024534  0.21462729  0.81507400     0.06690
C2209       C  0.57136882  0.20678381  0.78728636    -0.03100
C2210       C  0.56292031  0.23216611  0.76443071    -0.03100
C2211       C  0.57768134  0.26398963  0.76615924     0.06830
C2212       C  0.59705658  0.27061155  0.79351951    -0.03300
Br2213     Br  0.62673676  0.30683381  0.79417980    -0.01850
Br2214     Br  0.60826202  0.26554614  0.86160623    -0.01920
Br2215     Br  0.52944264  0.22411224  0.73289614    -0.01880
Br2216     Br  0.55798632  0.16187748  0.78023376    -0.01860
C2217       C  0.69350690  0.36900594  0.71503631    -0.02990
C2218       C  0.66039809  0.37205289  0.72319842     0.06690
C2219       C  0.65199948  0.37712664  0.75679724    -0.03100
C2220       C  0.67624100  0.37973048  0.78138453    -0.03100
C2221       C  0.70953300  0.37629521  0.77331958     0.06830
C2222       C  0.71787806  0.37099140  0.73955845    -0.03300
Br2223     Br  0.76264826  0.36822447  0.72499413    -0.01850
Br2224     Br  0.70513782  0.36127470  0.66968144    -0.01920
Br2225     Br  0.66334058  0.38651277  0.82663351    -0.01880
Br2226     Br  0.60703043  0.38073386  0.77026557    -0.01860
C2227       C  0.60267627  0.34890089  0.51760682    -0.02990
C2228       C  0.59756499  0.31567836  0.50858862     0.06690
C2229       C  0.59486682  0.29169797  0.53384883    -0.03100
C2230       C  0.60350556  0.29951262  0.56617053    -0.03100
C2231       C  0.60660183  0.33258878  0.57591070     0.06830
C2232       C  0.60538422  0.35747580  0.55129880    -0.03300
Br2233     Br  0.60989567  0.40324238  0.56340291    -0.01850
Br2234     Br  0.60680820  0.38244290  0.48422644    -0.01920
Br2235     Br  0.61521492  0.26412859  0.59510872    -0.01880
Br2236     Br  0.57925960  0.24746476  0.52474526    -0.01860
C2237       C  0.43197007  0.97979470  0.76077928    -0.02990
C2238       C  0.44223374  0.95547143  0.73752493     0.06690
C2239       C  0.46348067  0.96453025  0.71203203    -0.03100
C2240       C  0.47030767  0.99801104  0.70720321    -0.03100
C2241       C  0.45898858  0.02194276  0.73017372     0.06830
C2242       C  0.44466532  0.01157871  0.75925269    -0.03300
Br2243     Br  0.44126127  0.04110368  0.79608692    -0.01850
Br2244     Br  0.39730198  0.97272648  0.79252213    -0.01920
Br2245     Br  0.49216670  0.01028197  0.66700488    -0.01880
Br2246     Br  0.48306904  0.93190589  0.68352669    -0.01860
C2247       C  0.56813403  0.09815118  0.60525393    -0.02990
C2248       C  0.59204488  0.09039298  0.62904793     0.06690
C2249       C  0.58164998  0.07949634  0.66040319    -0.03100
C2250       C  0.54835872  0.07762629  0.66831313    -0.03100
C2251       C  0.52431890  0.08592848  0.64472638     0.06830
C2252       C  0.53446375  0.09572586  0.61296304    -0.03300
Br2253     Br  0.50255037  0.10983217  0.58131296    -0.01850
Br2254     Br  0.58140308  0.11485128  0.56281369    -0.01920
Br2255     Br  0.53655663  0.06508650  0.71300199    -0.01880
Br2256     Br  0.61216927  0.06574864  0.69346042    -0.01860
C2257       C  0.51069693  0.20136856  0.65441568    -0.02990
C2258       C  0.47651626  0.20623386  0.65537459     0.06690
C2259       C  0.46331260  0.23706925  0.64676740    -0.03100
C2260       C  0.48457292  0.26327780  0.64093514    -0.03100
C2261       C  0.51783033  0.25936910  0.64694109     0.06830
C2262       C  0.53143941  0.22802504  0.64999636    -0.03300
Br2263     Br  0.57801370  0.22184007  0.65607282    -0.01850
Br2264     Br  0.53122060  0.16057151  0.66509808    -0.01920
Br2265     Br  0.46867141  0.30437271  0.62493446    -0.01880
Br2266     Br  0.41699439  0.24582875  0.64852541    -0.01860
C2267       C  0.40940496  0.15567048  0.55945870    -0.02990
C2268       C  0.39139612  0.12879100  0.57231852     0.06690
C2269       C  0.37547319  0.10754409  0.54992211    -0.03100
C2270       C  0.37580335  0.11459068  0.51565064    -0.03100
C2271       C  0.39193592  0.14305076  0.50355244     0.06830
C2272       C  0.40867596  0.16343189  0.52587675    -0.03300
Br2273     Br  0.43023787  0.20329635  0.51087494    -0.01850
Br2274     Br  0.43827451  0.18076610  0.58640837    -0.01920
Br2275     Br  0.35191351  0.08704090  0.48567914    -0.01880
Br2276     Br  0.35272101  0.06923871  0.56637581    -0.01860
C2277       C  0.43105250  0.20328385  0.78998852    -0.02990
C2278       C  0.40654236  0.19431527  0.76707285     0.06690
C2279       C  0.37855969  0.21477122  0.76491202    -0.03100
C2280       C  0.37580516  0.24345714  0.78417534    -0.03100
C2281       C  0.39849032  0.25046485  0.80921187     0.06830
C2282       C  0.42703730  0.23115194  0.81080184    -0.03300
Br2283     Br  0.46139149  0.24368676  0.84031425    -0.01850
Br2284     Br  0.47037387  0.17779311  0.79337394    -0.01920
Br2285     Br  0.34104237  0.27438739  0.77533534    -0.01880
Br2286     Br  0.34157606  0.20272495  0.73801433    -0.01860
C2287       C  0.21886803  0.01566526  0.96803487    -0.02990
C2288       C  0.24295888  0.01747624  0.94262831     0.06690
C2289       C  0.27558528  0.02073024  0.95099430    -0.03100
C2290       C  0.28340897  0.03113811  0.98270965    -0.03100
C2291       C  0.25951321  0.02962685  0.00866651     0.06830
C2292       C  0.22759369  0.01963179  0.00105895    -0.03300
Br2293     Br  0.19494927  0.01253833  0.03492410    -0.01850
Br2294     Br  0.17303498  0.00925260  0.95868174    -0.01920
Br2295     Br  0.32551837  0.05273703  0.98645125    -0.01880
Br2296     Br  0.30937676  0.01266609  0.91875031    -0.01860
C2297       C  0.12158162  0.90540821  0.85436206    -0.02990
C2298       C  0.13470973  0.88406744  0.87826197     0.06690
C2299       C  0.15577710  0.89730479  0.90202146    -0.03100
C2300       C  0.16777845  0.92950238  0.89911296    -0.03100
C2301       C  0.15388540  0.95146672  0.87646233     0.06830
C2302       C  0.12990707  0.93948252  0.85455126    -0.03300
Br2303     Br  0.11049246  0.96926659  0.82338167    -0.01850
Br2304     Br  0.09276626  0.88789998  0.82150969    -0.01920
Br2305     Br  0.20659768  0.94113032  0.92306682    -0.01880
Br2306     Br  0.16757726  0.87229122  0.93980858    -0.01860
C2307       C  0.08525258  0.09987252  0.79895962    -0.02990
C2308       C  0.09430876  0.08330092  0.82800304     0.06690
C2309       C  0.06918042  0.06621546  0.84599692    -0.03100
C2310       C  0.03623054  0.06641495  0.83521141    -0.03100
C2311       C  0.02776425  0.08160125  0.80524409     0.06830
C2312       C  0.05359579  0.09620761  0.78615899    -0.03300
Br2313     Br  0.04817893  0.11025082  0.74077847    -0.01850
Br2314     Br  0.11491701  0.13005575  0.77667801    -0.01920
Br2315     Br  0.00301490  0.04523955  0.86180463    -0.01880
Br2316     Br  0.07806351  0.04263458  0.88644090    -0.01860
C2317       C  0.23071390  0.17650431  0.87159477    -0.02990
C2318       C  0.23798114  0.14297486  0.87538441     0.06690
C2319       C  0.26940809  0.13461491  0.88679481    -0.03100
C2320       C  0.29362045  0.15896962  0.89333381    -0.03100
C2321       C  0.28695568  0.19302184  0.88867375     0.06830
C2322       C  0.25441314  0.20126402  0.87849684    -0.03300
Br2323     Br  0.24000398  0.24623844  0.87416739    -0.01850
Br2324     Br  0.18772252  0.18810645  0.85624999    -0.01920
Br2325     Br  0.33615306  0.14439284  0.90746171    -0.01880
Br2326     Br  0.27975091  0.08910277  0.89270323    -0.01860
C2327       C  0.31871909  0.06770523  0.77749657    -0.02990
C2328       C  0.28758594  0.05656517  0.76833467     0.06690
C2329       C  0.28127202  0.05252078  0.73409738    -0.03100
C2330       C  0.30460122  0.06217399  0.70987894    -0.03100
C2331       C  0.33463837  0.07603589  0.71920132     0.06830
C2332       C  0.34159097  0.07771199  0.75328026    -0.03300
Br2333     Br  0.38249559  0.09426822  0.76780181    -0.01850
Br2334     Br  0.32996457  0.07086170  0.82335538    -0.01920
Br2335     Br  0.29506400  0.05780421  0.66380794    -0.01880
Br2336     Br  0.24105310  0.03254146  0.71975526    -0.01860
C2337       C  0.23076368  0.95186594  0.46301359    -0.02990
C2338       C  0.25681414  0.93054847  0.45556725     0.06690
C2339       C  0.28147972  0.92564032  0.48011718    -0.03100
C2340       C  0.27889726  0.94096024  0.51083732    -0.03100
C2341       C  0.24949688  0.95477346  0.52005807     0.06830
C2342       C  0.22739284  0.96403141  0.49520357    -0.03300
Br2343     Br  0.19260420  0.99375377  0.50573154    -0.01850
Br2344     Br  0.20013123  0.96542496  0.42980943    -0.01920
Br2345     Br  0.31465628  0.94285303  0.54141774    -0.01880
Br2346     Br  0.31822380  0.89625986  0.47460444    -0.01860
C2347       C  0.17926794  0.04241924  0.58826004    -0.02990
C2348       C  0.15869914  0.01545242  0.57964335     0.06690
C2349       C  0.12659415  0.02236930  0.56945002    -0.03100
C2350       C  0.11499701  0.05533469  0.56912697    -0.03100
C2351       C  0.13525752  0.08209183  0.57921787     0.06830
C2352       C  0.16706415  0.07480059  0.59027696    -0.03300
Br2353     Br  0.19491443  0.10835104  0.60912745    -0.01850
Br2354     Br  0.22575414  0.03638281  0.59444167    -0.01920
Br2355     Br  0.07012643  0.06290250  0.55695755    -0.01880
Br2356     Br  0.09830525  0.98703035  0.55536371    -0.01860
C2357       C  0.16481692  0.93734125  0.73298402    -0.02990
C2358       C  0.16004732  0.95305238  0.70283654     0.06690
C2359       C  0.15307995  0.98704022  0.70175505    -0.03100
C2360       C  0.15418822  0.00564056  0.73045414    -0.03100
C2361       C  0.16836693  0.99140691  0.75860114     0.06830
C2362       C  0.17217534  0.95659590  0.76033501    -0.03300
Br2363     Br  0.19096680  0.93414099  0.79748525    -0.01850
Br2364     Br  0.16691241  0.88974899  0.73543743    -0.01920
Br2365     Br  0.14052022  0.05138607  0.72848778    -0.01880
Br2366     Br  0.14697231  0.01007824  0.66108853    -0.01860
C2367       C  0.04090482  0.91055414  0.63876630    -0.02990
C2368       C  0.02092373  0.88314802  0.63311585     0.06690
C2369       C  0.03238272  0.85806390  0.61199202    -0.03100
C2370       C  0.06586486  0.85692312  0.60291168    -0.03100
C2371       C  0.08716545  0.88252402  0.61249920     0.06830
C2372       C  0.07362929  0.91039327  0.62824375    -0.03300
Br2373     Br  0.09952463  0.94877212  0.63563522    -0.01850
Br2374     Br  0.02237964  0.94918234  0.65883383    -0.01920
Br2375     Br  0.08247352  0.82086557  0.57725433    -0.01880
Br2376     Br  0.00181988  0.82631078  0.59480706    -0.01860
C2377       C  0.30553858  0.91180019  0.68790506    -0.02990
C2378       C  0.27648155  0.89254297  0.68680909     0.06690
C2379       C  0.27114579  0.86973799  0.71317995    -0.03100
C2380       C  0.29275599  0.86803176  0.74021761    -0.03100
C2381       C  0.32222972  0.88609054  0.74060202     0.06830
C2382       C  0.32785192  0.90858674  0.71441603    -0.03300
Br2383     Br  0.36641920  0.93525992  0.71369864    -0.01850
Br2384     Br  0.31698472  0.94160320  0.65236055    -0.01920
Br2385     Br  0.28145354  0.84111219  0.77795158    -0.01880
Br2386     Br  0.23671242  0.83697776  0.71190397    -0.01860
C2387       C  0.48306071  0.70124822  0.51362541    -0.02990
C2388       C  0.45925349  0.72676466  0.51762901     0.06690
C2389       C  0.46976531  0.75948703  0.51581893    -0.03100
C2390       C  0.50347556  0.76629432  0.51441088    -0.03100
C2391       C  0.52700014  0.74062450  0.51945095     0.06830
C2392       C  0.51655450  0.70792244  0.51688887    -0.03300
Br2393     Br  0.54743474  0.67206319  0.51876760    -0.01850
Br2394     Br  0.47111717  0.65693239  0.50150103    -0.01920
Br2395     Br  0.51625944  0.81076874  0.50285993    -0.01880
Br2396     Br  0.43844596  0.79486222  0.51618183    -0.01860
C2397       C  0.39030598  0.60378593  0.40540859    -0.02990
C2398       C  0.39093204  0.62907252  0.38108161     0.06690
C2399       C  0.39504706  0.66193956  0.39162485    -0.03100
C2400       C  0.40132165  0.66906941  0.42474757    -0.03100
C2401       C  0.39714141  0.64466688  0.44935675     0.06830
C2402       C  0.39214289  0.61170378  0.43940687    -0.03300
Br2403     Br  0.38587906  0.57787747  0.47215413    -0.01850
Br2404     Br  0.38380931  0.55846735  0.39259104    -0.01920
Br2405     Br  0.41631678  0.71297086  0.43617484    -0.01880
Br2406     Br  0.38983561  0.69838799  0.36196587    -0.01860
C2407       C  0.28647262  0.80053631  0.55184106    -0.02990
C2408       C  0.28113060  0.76712277  0.56111452     0.06690
C2409       C  0.24960457  0.75950819  0.57512090    -0.03100
C2410       C  0.22497035  0.78399996  0.57862691    -0.03100
C2411       C  0.23095663  0.81711033  0.57028384     0.06830
C2412       C  0.26218390  0.82493352  0.55757025    -0.03300
Br2413     Br  0.27338915  0.87010185  0.55188982    -0.01850
Br2414     Br  0.32749637  0.81450691  0.53262993    -0.01920
Br2415     Br  0.18249750  0.77277875  0.59630901    -0.01880
Br2416     Br  0.23870850  0.71644259  0.59255536    -0.01860
C2417       C  0.36229551  0.73592509  0.66243560    -0.02990
C2418       C  0.38685784  0.72401200  0.64081937     0.06690
C2419       C  0.41623373  0.74262718  0.63865778    -0.03100
C2420       C  0.42081269  0.77184242  0.65772433    -0.03100
C2421       C  0.39524226  0.78447637  0.67753979     0.06830
C2422       C  0.36548294  0.76673664  0.67823761    -0.03300
Br2423     Br  0.32796148  0.78530056  0.70038679    -0.01850
Br2424     Br  0.32444227  0.70911913  0.67289732    -0.01920
Br2425     Br  0.46262443  0.79376909  0.65737240    -0.01880
Br2426     Br  0.45042288  0.72872965  0.60957559    -0.01860
C2427       C  0.37057217  0.54881273  0.57966706    -0.02990
C2428       C  0.34750494  0.57398954  0.58728456     0.06690
C2429       C  0.31510181  0.56425639  0.59404669    -0.03100
C2430       C  0.30493475  0.53165551  0.58812101    -0.03100
C2431       C  0.32793171  0.50614127  0.58228007     0.06830
C2432       C  0.36097636  0.51507879  0.57828041    -0.03300
Br2433     Br  0.39329647  0.48127345  0.57179596    -0.01850
Br2434     Br  0.41618059  0.55953528  0.57384109    -0.01920
Br2435     Br  0.25843751  0.52343952  0.58502466    -0.01880
Br2436     Br  0.28417173  0.59408263  0.61389169    -0.01860
C2437       C  0.98206521  0.76099384  0.45163425    -0.02990
C2438       C  0.95792427  0.73659897  0.44455235     0.06690
C2439       C  0.96736396  0.70362574  0.44329261    -0.03100
C2440       C  0.00081471  0.69595395  0.44269029    -0.03100
C2441       C  0.02500952  0.72164761  0.44155059     0.06830
C2442       C  0.01543397  0.75391052  0.44871874    -0.03300
Br2443     Br  0.04728247  0.78893365  0.45296097    -0.01850
Br2444     Br  0.97034047  0.80428834  0.46662296    -0.01920
Br2445     Br  0.01221045  0.64977351  0.44499470    -0.01880
Br2446     Br  0.93472789  0.66923814  0.44220242    -0.01860
C2447       C  0.11695937  0.61314884  0.51941655    -0.02990
C2448       C  0.09665828  0.63869128  0.50762790     0.06690
C2449       C  0.07445573  0.65335311  0.52951915    -0.03100
C2450       C  0.07188898  0.64208358  0.56203134    -0.03100
C2451       C  0.09550686  0.62082992  0.57541437     0.06830
C2452       C  0.11746351  0.60534627  0.55354566    -0.03300
Br2453     Br  0.14747082  0.57316250  0.57030363    -0.01850
Br2454     Br  0.14506961  0.59033728  0.48905898    -0.01920
Br2455     Br  0.03315271  0.65245625  0.58600374    -0.01880
Br2456     Br  0.04873654  0.69070094  0.51613430    -0.01860
C2457       C  0.23508752  0.80018813  0.35372639    -0.02990
C2458       C  0.25561539  0.81361961  0.37886323     0.06690
C2459       C  0.24551652  0.80732855  0.41197472    -0.03100
C2460       C  0.21647142  0.78889567  0.41927228    -0.03100
C2461       C  0.19559621  0.77754476  0.39406614     0.06830
C2462       C  0.20489981  0.78452792  0.36140566    -0.03300
Br2463     Br  0.17541838  0.77198687  0.32655091    -0.01850
Br2464     Br  0.24819463  0.79879566  0.30806539    -0.01920
Br2465     Br  0.20617438  0.77729507  0.46411498    -0.01880
Br2466     Br  0.27264027  0.82062029  0.44823399    -0.01860
C2467       C  0.08221179  0.70902078  0.28471901    -0.02990
C2468       C  0.08740162  0.71834529  0.31739963     0.06690
C2469       C  0.08037894  0.75122329  0.32659284    -0.03100
C2470       C  0.07029230  0.77493433  0.30320891    -0.03100
C2471       C  0.06921264  0.76682145  0.26945553     0.06830
C2472       C  0.07268260  0.73280230  0.26106211    -0.03300
Br2473     Br  0.06117676  0.71717219  0.21812838    -0.01850
Br2474     Br  0.08940083  0.66369913  0.27238860    -0.01920
Br2475     Br  0.05667443  0.81764231  0.31872208    -0.01880
Br2476     Br  0.08556430  0.76459960  0.37144573    -0.01860
C2477       C  0.24313733  0.64918217  0.50986792    -0.02990
C2478       C  0.27380831  0.65116243  0.49467029     0.06690
C2479       C  0.27616736  0.65483817  0.46043832    -0.03100
C2480       C  0.24870049  0.66316740  0.44237346    -0.03100
C2481       C  0.21855458  0.66599466  0.45865549     0.06830
C2482       C  0.21581137  0.65929943  0.49254227    -0.03300
Br2483     Br  0.17698783  0.66898524  0.51735870    -0.01850
Br2484     Br  0.23826987  0.63564787  0.55502473    -0.01920
Br2485     Br  0.25420545  0.67730421  0.39716432    -0.01880
Br2486     Br  0.31731653  0.65069983  0.43850912    -0.01860
C2487       C  0.18391506  0.53367389  0.38855583    -0.02990
C2488       C  0.16087905  0.50936498  0.37925686     0.06690
C2489       C  0.12990048  0.51954668  0.36833533    -0.03100
C2490       C  0.12240004  0.55363003  0.36639152    -0.03100
C2491       C  0.14625491  0.57786858  0.37387512     0.06830
C2492       C  0.17727586  0.56738672  0.38425966    -0.03300
Br2493     Br  0.21182928  0.59850684  0.39180674    -0.01850
Br2494     Br  0.22555877  0.52092829  0.40683163    -0.01920
Br2495     Br  0.08020331  0.56723598  0.35078340    -0.01880
Br2496     Br  0.09905305  0.48709776  0.35299152    -0.01860
loop_ 
_geom_bond_atom_site_label_1 
_geom_bond_atom_site_label_2 
_geom_bond_distance 
_geom_bond_site_symmetry_2 
_ccdc_geom_bond_type 
O1           C16   1.267       .  A
O1           Al9   1.900       .  S
C2           O12   1.284       .  A
C2            O3   1.265       .  A
C2         C2468   1.499       .  S
O3           Al5   1.884       .  S
O4            C6   1.253       .  A
O4           Al5   1.893       .  S
Al5          O13   1.950       .  S
Al5          O15   1.858       .  S
Al5          O14   1.784       .  S
C6           O19   1.276       .  A
C6         C2461   1.518       .  S
O7           C17   1.274       .  A
O7           Al9   1.955       .  S
O8           C21   1.268       .  A
O8          Al18   1.949       .  S
Al9          O22   1.879       .  S
Al9          O19   1.980       .  S
Al9          O14   1.796       .  S
O10          C17   1.240       .  A
O10         Al18   1.813       .  S
O11          C20   1.238       .  A
O11         Al18   1.863       .  S
O12         Al18   1.982       .  S
O13          C20   1.257       .  A
O14         Al18   1.776       .  S
O15          C16   1.265       .  A
C16        C2481   1.444       .  S
C17        C2441   1.490       .  S
C20        C2491   1.493       .  S
C21          O22   1.255       .  A
C21        C2448   1.491       .  S
O23          C38   1.282       .  A
O23         Al31   1.927       .  S
C24          O34   1.299       .  A
C24          O25   1.266       .  A
C24        C2418   1.522       .  S
O25         Al27   1.850       .  S
O26          C28   1.253       .  A
O26         Al27   1.919       .  S
Al27         O35   1.943       .  S
Al27         O37   1.872       .  S
Al27         O36   1.774       .  S
C28          O41   1.275       .  A
C28        C2408   1.544       .  S
O29          C39   1.277       .  A
O29         Al31   1.974       .  S
O30          C43   1.275       .  A
O30         Al40   1.973       .  S
Al31         O44   1.847       .  S
Al31         O41   1.979       .  S
Al31         O36   1.768       .  S
O32          C39   1.238       .  A
O32         Al40   1.798       .  S
O33          C42   1.237       .  A
O33         Al40   1.880       .  S
O34         Al40   2.030       .  S
O35          C42   1.252       .  A
O36         Al40   1.753       .  S
O37          C38   1.270       .  A
C38        C2478   1.453       .  S
C39        C2388   1.495       .  S
C42        C2428   1.509       .  S
C43          O44   1.254       .  A
C43        C2401   1.500       .  S
O45          C60   1.269       .  A
O45         Al53   1.908       .  S
C46          O56   1.291       .  A
C46          O47   1.265       .  A
C46        C2411   1.520       .  S
O47         Al49   1.889       .  S
O48          C50   1.260       .  A
O48         Al49   1.929       .  S
Al49         O57   1.947       .  S
Al49         O59   1.883       .  S
Al49         O58   1.793       .  S
C50          O63   1.269       .  A
C50        C2378   1.530       .  S
O51          C61   1.264       .  A
O51         Al53   1.939       .  S
O52          C65   1.275       .  A
O52         Al62   1.972       .  S
Al53         O66   1.852       .  S
Al53         O63   1.945       .  S
Al53         O58   1.780       .  S
O54          C61   1.248       .  A
O54         Al62   1.824       .  S
O55          C64   1.246       .  A
O55         Al62   1.892       .  S
O56         Al62   2.015       .  S
O57          C64   1.258       .  A
O58         Al62   1.771       .  S
O59          C60   1.265       .  A
C60        C2358   1.451       .  S
C61        C2341   1.469       .  S
C64        C2371   1.499       .  S
C65          O66   1.253       .  A
C65        C2348   1.507   1_565  S
O67          C82   1.271       .  A
O67         Al75   1.913       .  S
C68          O78   1.290       .  A
C68          O69   1.271       .  A
C68        C2318   1.513       .  S
O69         Al71   1.900       .  S
O70          C72   1.256       .  A
O70         Al71   1.912       .  S
Al71         O79   1.943       .  S
Al71         O81   1.877       .  S
Al71         O80   1.775       .  S
C72          O85   1.274       .  A
C72        C2328   1.513       .  S
O73          C83   1.271       .  A
O73         Al75   1.945       .  S
O74          C87   1.268   1_545  A
O74         Al84   1.950       .  S
Al75         O88   1.859   1_545  S
Al75         O85   1.958       .  S
Al75         O80   1.785       .  S
O76          C83   1.240       .  A
O76         Al84   1.797       .  S
O77          C86   1.232       .  A
O77         Al84   1.859       .  S
O78         Al84   2.001       .  S
O79          C86   1.255       .  A
O80         Al84   1.762       .  S
O81          C82   1.268       .  A
C82        C2361   1.466   1_545  S
C83        C2288   1.472       .  S
C86        C2308   1.516       .  S
C87          O88   1.251       .  A
C87        C2301   1.480       .  S
O89         C104   1.264       .  A
O89         Al97   1.880       .  S
C90         O100   1.288       .  A
C90          O91   1.274       .  A
C90        C2331   1.515       .  S
O91         Al93   1.914       .  S
O92          C94   1.248       .  A
O92         Al93   1.883       .  S
Al93        O101   1.936       .  S
Al93        O103   1.864       .  S
Al93        O102   1.780       .  S
C94         O107   1.262       .  A
C94        C2278   1.512       .  S
O95         C105   1.263       .  A
O95         Al97   1.916       .  S
O96         C109   1.270       .  A
O96        Al106   1.944       .  S
Al97        O110   1.855       .  S
Al97        O107   1.936       .  S
Al97        O102   1.797       .  S
O98         C105   1.240       .  A
O98        Al106   1.799       .  S
O99         C108   1.238       .  A
O99        Al106   1.877       .  S
O100       Al106   1.985       .  S
O101        C108   1.253       .  A
O102       Al106   1.785       .  S
O103        C104   1.267       .  A
C104       C2258   1.452       .  S
C105       C2241   1.458       .  S
C108       C2268   1.501       .  S
C109        O110   1.255       .  A
C109       C2251   1.492       .  S
O111        C126   1.288       .  A
O111       Al119   1.948       .  S
C112        O122   1.306       .  A
C112        O113   1.265       .  A
C112       C2218   1.504       .  S
O113       Al115   1.852       .  S
O114        C116   1.256       .  A
O114       Al115   1.945       .  S
Al115       O123   1.956       .  S
Al115       O125   1.844       .  S
Al115       O124   1.780       .  S
C116        O129   1.267       .  A
C116       C2211   1.509       .  S
O117        C127   1.279       .  A
O117       Al119   1.992       .  S
O118        C131   1.277       .  A
O118       Al128   1.985       .  S
Al119       O132   1.821       .  S
Al119       O129   1.952       .  S
Al119       O124   1.755       .  S
O120        C127   1.234       .  A
O120       Al128   1.765       .  S
O121        C130   1.238       .  A
O121       Al128   1.870       .  S
O122       Al128   2.040       .  S
O123        C130   1.257       .  A
O124       Al128   1.750       .  S
O125        C126   1.265       .  A
C126       C2261   1.437       .  S
C127       C2191   1.479       .  S
C130       C2231   1.495       .  S
C131        O132   1.242       .  A
C131       C2201   1.514       .  S
O133        C148   1.279       .  A
O133       Al141   1.919       .  S
C134        O144   1.291       .  A
C134        O135   1.268       .  A
C134       C2208   1.508       .  S
O135       Al137   1.871       .  S
O136        C138   1.253       .  A
O136       Al137   1.914       .  S
Al137       O145   1.957       .  S
Al137       O147   1.836       .  S
Al137       O146   1.779       .  S
C138        O151   1.269       .  A
C138       C2181   1.537       .  S
O139        C149   1.282       .  A
O139       Al141   2.004       .  S
O140        C153   1.265       .  A
O140       Al150   1.943       .  S
Al141       O154   1.888       .  S
Al141       O151   1.972       .  S
Al141       O146   1.789       .  S
O142        C149   1.230       .  A
O142       Al150   1.763       .  S
O143        C152   1.232       .  A
O143       Al150   1.842       .  S
O144       Al150   2.009       .  S
O145        C152   1.256       .  A
O146       Al150   1.771       .  S
O147        C148   1.265       .  A
C148       C2158   1.434       .  S
C149       C2138   1.501       .  S
C152       C2168   1.490       .  S
C153        O154   1.258       .  A
C153       C2148   1.503   1_556  S
O155        C170   1.267       .  A
O155       Al163   1.885       .  S
C156        O166   1.284       .  A
C156        O157   1.268       .  A
C156       C2108   1.510       .  S
O157       Al159   1.901       .  S
O158        C160   1.257       .  A
O158       Al159   1.904       .  S
Al159       O167   1.960       .  S
Al159       O169   1.893       .  S
Al159       O168   1.770       .  S
C160        O173   1.284       .  A
C160       C2121   1.528       .  S
O161        C171   1.279       .  A
O161       Al163   1.978       .  S
O162        C175   1.271   1_554  A
O162       Al172   1.982       .  S
Al163       O176   1.865   1_554  S
Al163       O173   1.976       .  S
Al163       O168   1.779       .  S
O164        C171   1.239       .  A
O164       Al172   1.822       .  S
O165        C174   1.239       .  A
O165       Al172   1.863       .  S
O166       Al172   1.984       .  S
O167        C174   1.261       .  A
O168       Al172   1.754       .  S
O169        C170   1.272       .  A
C170       C2161   1.459   1_554  S
C171       C2088   1.495       .  S
C174       C2131   1.504       .  S
C175        O176   1.249       .  A
C175       C2098   1.499       .  S
O177        C192   1.254       .  A
O177       Al185   1.821       .  S
C178        O188   1.282       .  A
C178        O179   1.283       .  A
C178       C2118   1.522       .  S
O179       Al181   1.961       .  S
O180        C182   1.254       .  A
O180       Al181   1.891       .  S
Al181       O189   1.898       .  S
Al181       O191   1.871       .  S
Al181       O190   1.764       .  S
C182        O195   1.274       .  A
C182       C2061   1.529       .  S
O183        C193   1.273       .  A
O183       Al185   1.958       .  S
O184        C197   1.289       .  A
O184       Al194   1.964       .  S
Al185       O198   1.933       .  S
Al185       O195   1.968       .  S
Al185       O190   1.763       .  S
O186        C193   1.229       .  A
O186       Al194   1.838       .  S
O187        C196   1.243       .  A
O187       Al194   1.909       .  S
O188       Al194   1.959       .  S
O189        C196   1.246       .  A
O190       Al194   1.771       .  S
O191        C192   1.260       .  A
C192       C2068   1.426       .  S
C193       C2038   1.481       .  S
C196       C2078   1.509       .  S
C197        O198   1.275       .  A
C197       C2048   1.493       .  S
O199        C214   1.249       .  A
O199       Al207   1.796       .  S
C200        O210   1.291       .  A
C200        O201   1.276       .  A
C200       C2018   1.522       .  S
O201       Al203   1.904       .  S
O202        C204   1.240       .  A
O202       Al203   1.859       .  S
Al203       O211   1.885       .  S
Al203       O213   1.915       .  S
Al203       O212   1.781       .  S
C204        O217   1.268       .  A
C204       C2011   1.518       .  S
O205        C215   1.258       .  A
O205       Al207   1.881       .  S
O206        C219   1.279       .  A
O206       Al216   1.970       .  S
Al207       O220   1.887       .  S
Al207       O217   1.961       .  S
Al207       O212   1.778       .  S
O208        C215   1.236       .  A
O208       Al216   1.806       .  S
O209        C218   1.237       .  A
O209       Al216   1.866       .  S
O210       Al216   1.991       .  S
O211        C218   1.242       .  A
O212       Al216   1.774       .  S
O213        C214   1.275       .  A
C214       C2071   1.434       .  S
C215       C1988   1.465       .  S
C218       C2028   1.492       .  S
C219        O220   1.261       .  A
C219       C2001   1.507       .  S
O221        C236   1.289       .  A
O221       Al229   1.962       .  S
C222        O232   1.298       .  A
C222        O223   1.267       .  A
C222       C2008   1.507       .  S
O223       Al225   1.870       .  S
O224        C226   1.256       .  A
O224       Al225   1.930       .  S
Al225       O233   1.959       .  S
Al225       O235   1.837       .  S
Al225       O234   1.786       .  S
C226        O239   1.264       .  A
C226       C1981   1.520       .  S
O227        C237   1.282       .  A
O227       Al229   2.007       .  S
O228        C241   1.271       .  A
O228       Al238   1.972       .  S
Al229       O242   1.840       .  S
Al229       O239   1.943       .  S
Al229       O234   1.767       .  S
O230        C237   1.236       .  A
O230       Al238   1.761       .  S
O231        C240   1.239       .  A
O231       Al238   1.869       .  S
O232       Al238   2.022       .  S
O233        C240   1.260       .  A
O234       Al238   1.760       .  S
O235        C236   1.263       .  A
C236       C1958   1.455       .  S
C237       C1941   1.498       .  S
C240       C1968   1.492       .  S
C241        O242   1.247       .  A
C241       C1948   1.513   1_655  S
O243        C258   1.291       .  A
O243       Al251   1.966       .  S
C244        O254   1.303       .  A
C244        O245   1.264       .  A
C244       C1918   1.503       .  S
O245       Al247   1.851       .  S
O246        C248   1.255       .  A
O246       Al247   1.923       .  S
Al247       O255   1.951       .  S
Al247       O257   1.846       .  S
Al247       O256   1.782       .  S
C248        O261   1.265       .  A
C248       C2471   1.521       .  S
O249        C259   1.283       .  A
O249       Al251   2.014       .  S
O250        C263   1.275   1_455  A
O250       Al260   1.989       .  S
Al251       O264   1.830       .  S
Al251       O261   1.946       .  S
Al251       O256   1.761       .  S
O252        C259   1.238       .  A
O252       Al260   1.765       .  S
O253        C262   1.241       .  A
O253       Al260   1.885       .  S
O254       Al260   2.038       .  S
O255        C262   1.257       .  A
O256       Al260   1.753       .  S
O257        C258   1.265       .  A
C258       C1961   1.456       .  S
C259       C1898   1.496       .  S
C262       C1928   1.508       .  S
C263        O264   1.245   1_655  A
C263       C1908   1.517       .  S
O265        C280   1.257       .  A
O265       Al273   1.850       .  S
C266        O276   1.290       .  A
C266        O267   1.284       .  A
C266       C2458   1.548       .  S
O267       Al269   1.951       .  S
O268        C270   1.247       .  A
O268       Al269   1.867       .  S
Al269       O277   1.905       .  S
Al269       O279   1.863       .  S
Al269       O278   1.750       .  S
C270        O283   1.274       .  A
C270       C1921   1.522       .  S
O271        C281   1.273       .  A
O271       Al273   1.976       .  S
O272        C285   1.295       .  A
O272       Al282   1.965       .  S
Al273       O286   1.936       .  S
Al273       O283   1.957       .  S
Al273       O278   1.771       .  S
O274        C281   1.232       .  A
O274       Al282   1.812       .  S
O275        C284   1.244       .  A
O275       Al282   1.921       .  S
O276       Al282   1.969       .  S
O277        C284   1.245       .  A
O278       Al282   1.744       .  S
O279        C280   1.262       .  A
C280       C1878   1.432       .  S
C281       C2338   1.488       .  S
C284       C1888   1.514       .  S
C285        O286   1.276       .  A
C285       C1868   1.511   1_565  S
O287        C302   1.256       .  A
O287       Al295   1.847       .  S
C288        O298   1.283       .  A
C288        O289   1.284       .  A
C288       C1838   1.540       .  S
O289       Al291   1.963       .  S
O290        C292   1.253       .  A
O290       Al291   1.882       .  S
Al291       O299   1.920       .  S
Al291       O301   1.863       .  S
Al291       O300   1.764       .  S
C292        O305   1.268       .  A
C292       C1848   1.501       .  S
O293        C303   1.266       .  A
O293       Al295   1.962       .  S
O294        C307   1.292   1_545  A
O294       Al304   1.952       .  S
Al295       O308   1.935   1_545  S
Al295       O305   1.928       .  S
Al295       O300   1.759       .  S
O296        C303   1.229       .  A
O296       Al304   1.826       .  S
O297        C306   1.242       .  A
O297       Al304   1.895       .  S
O298       Al304   1.947       .  S
O299        C306   1.247       .  A
O300       Al304   1.763       .  S
O301        C302   1.259       .  A
C302       C1881   1.447       .  S
C303       C2291   1.486       .  S
C306       C1858   1.481       .  S
C307        O308   1.278       .  A
C307       C1828   1.496       .  S
O309        C324   1.277       .  A
O309       Al317   1.924       .  S
C310        O320   1.291       .  A
C310        O311   1.265       .  A
C310       C2281   1.503       .  S
O311       Al313   1.847       .  S
O312        C314   1.253       .  A
O312       Al313   1.914       .  S
Al313       O321   1.930       .  S
Al313       O323   1.854       .  S
Al313       O322   1.783       .  S
C314        O327   1.270       .  A
C314       C2321   1.538       .  S
O315        C325   1.275       .  A
O315       Al317   1.959       .  S
O316        C329   1.267       .  A
O316       Al326   1.940       .  S
Al317       O330   1.841       .  S
Al317       O327   1.961       .  S
Al317       O322   1.776       .  S
O318        C325   1.243       .  A
O318       Al326   1.807       .  S
O319        C328   1.238       .  A
O319       Al326   1.869       .  S
O320       Al326   2.007       .  S
O321        C328   1.252       .  A
O322       Al326   1.774       .  S
O323        C324   1.264       .  A
C324       C1808   1.453       .  S
C325       C2141   1.475       .  S
C328       C1821   1.476       .  S
C329        O330   1.251       .  A
C329       C1798   1.489   1_556  S
O331        C346   1.277       .  A
O331       Al339   1.920       .  S
C332        O342   1.292       .  A
C332        O333   1.268       .  A
C332       C1778   1.496       .  S
O333       Al335   1.848       .  S
O334        C336   1.254       .  A
O334       Al335   1.913       .  S
Al335       O343   1.941       .  S
Al335       O345   1.861       .  S
Al335       O344   1.769       .  S
C336        O349   1.269       .  A
C336       C1841   1.513       .  S
O337        C347   1.273       .  A
O337       Al339   1.945       .  S
O338        C351   1.265       .  A
O338       Al348   1.933   1_556  S
Al339       O352   1.851   1_554  S
Al339       O349   1.963       .  S
Al339       O344   1.776       .  S
O340        C347   1.241       .  A
O340       Al348   1.796       .  S
O341        C350   1.236       .  A
O341       Al348   1.872       .  S
O342       Al348   2.006       .  S
O343        C350   1.252       .  A
O344       Al348   1.765       .  S
O345        C346   1.271       .  A
C346       C1811   1.443   1_554  S
C347       C2091   1.471       .  S
C350       C1788   1.501       .  S
C351        O352   1.252       .  A
C351       C1768   1.479       .  S
O353        C368   1.280       .  A
O353       Al361   1.932       .  S
C354        O364   1.296       .  A
C354        O355   1.265       .  A
C354       C2058   1.509       .  S
O355       Al357   1.868       .  S
O356        C358   1.261       .  A
O356       Al357   1.936       .  S
Al357       O365   1.950       .  S
Al357       O367   1.882       .  S
Al357       O366   1.791       .  S
C358        O371   1.272       .  A
C358       C2111   1.522       .  S
O359        C369   1.279       .  A
O359       Al361   1.995       .  S
O360        C373   1.274       .  A
O360       Al370   1.975       .  S
Al361       O374   1.815       .  S
Al361       O371   1.954       .  S
Al361       O366   1.773       .  S
O362        C369   1.245       .  A
O362       Al370   1.823       .  S
O363        C372   1.243       .  A
O363       Al370   1.894       .  S
O364       Al370   2.021       .  S
O365        C372   1.257       .  A
O366       Al370   1.770       .  S
O367        C368   1.267       .  A
C368       C1748   1.465       .  S
C369       C1938   1.494       .  S
C372       C1758   1.518       .  S
C373        O374   1.245       .  A
C373       C1741   1.494   1_655  S
O375        C390   1.284       .  A
O375       Al383   1.953       .  S
C376        O386   1.299       .  A
C376        O377   1.263       .  A
C376       C1851   1.495       .  S
O377       Al379   1.846       .  S
O378        C380   1.249       .  A
O378       Al379   1.890       .  S
Al379       O387   1.936       .  S
Al379       O389   1.854       .  S
Al379       O388   1.772       .  S
C380        O393   1.266       .  A
C380       C1781   1.500       .  S
O381        C391   1.279       .  A
O381       Al383   1.996       .  S
O382        C395   1.274   1_455  A
O382       Al392   1.971       .  S
Al383       O396   1.805   1_455  S
Al383       O393   1.942       .  S
Al383       O388   1.771       .  S
O384        C391   1.239       .  A
O384       Al392   1.782       .  S
O385        C394   1.243       .  A
O385       Al392   1.896       .  S
O386       Al392   2.023       .  S
O387        C394   1.252       .  A
O388       Al392   1.758       .  S
O389        C390   1.266       .  A
C390       C1751   1.444       .  S
C391       C1901   1.485       .  S
C394       C1728   1.496       .  S
C395        O396   1.241       .  A
C395       C1718   1.501       .  S
O397        C412   1.248       .  A
O397       Al405   1.811       .  S
C398        O408   1.274       .  A
C398        O399   1.277       .  A
C398       C1678   1.536       .  S
O399       Al401   1.937       .  S
O400        C402   1.253       .  A
O400       Al401   1.877       .  S
Al401       O409   1.889       .  S
Al401       O411   1.881       .  S
Al401       O410   1.767       .  S
C402        O415   1.274       .  A
C402       C1688   1.509       .  S
O403        C413   1.269       .  A
O403       Al405   1.929       .  S
O404        C417   1.289       .  A
O404       Al414   1.975       .  S
Al405       O418   1.924       .  S
Al405       O415   1.952       .  S
Al405       O410   1.773       .  S
O406        C413   1.231       .  A
O406       Al414   1.787       .  S
O407        C416   1.249       .  A
O407       Al414   1.920       .  S
O408       Al414   1.954       .  S
O409        C416   1.248       .  A
O410       Al414   1.777       .  S
O411        C412   1.255       .  A
C412       C1698   1.422       .  S
C413       C1991   1.472       .  S
C416       C1708   1.500       .  S
C417        O418   1.272       .  A
C417       C1668   1.504       .  S
O419        C434   1.257       .  A
O419       Al427   1.833       .  S
C420        O430   1.285       .  A
C420        O421   1.282       .  A
C420       C2178   1.558       .  S
O421       Al423   1.961       .  S
O422        C424   1.254       .  A
O422       Al423   1.891       .  S
Al423       O431   1.924       .  S
Al423       O433   1.881       .  S
Al423       O432   1.767       .  S
C424        O437   1.267       .  A
C424       C2221   1.513       .  S
O425        C435   1.267       .  A
O425       Al427   1.959       .  S
O426        C439   1.296       .  A
O426       Al436   1.977       .  S
Al427       O440   1.955       .  S
Al427       O437   1.930       .  S
Al427       O432   1.758       .  S
O428        C435   1.227       .  A
O428       Al436   1.824       .  S
O429        C438   1.243       .  A
O429       Al436   1.897       .  S
O430       Al436   1.973       .  S
O431        C438   1.251       .  A
O432       Al436   1.766       .  S
O433        C434   1.261       .  A
C434       C1701   1.438       .  S
C435       C2041   1.478       .  S
C438       C1658   1.485       .  S
C439        O440   1.279       .  A
C439       C1648   1.514       .  S
O441        C456   1.259       .  A
O441       Al449   1.851       .  S
C442        O452   1.293       .  A
C442        O443   1.266       .  A
C442       C1691   1.510       .  S
O443       Al445   1.876       .  S
O444        C446   1.251       .  A
O444       Al445   1.879       .  S
Al445       O453   1.923       .  S
Al445       O455   1.867       .  S
Al445       O454   1.779       .  S
C446        O459   1.274       .  A
C446       C1618   1.505       .  S
O447        C457   1.262       .  A
O447       Al449   1.948       .  S
O448        C461   1.274       .  A
O448       Al458   1.940       .  S
Al449       O462   1.913       .  S
Al449       O459   1.970       .  S
Al449       O454   1.792       .  S
O450        C457   1.230       .  A
O450       Al458   1.779       .  S
O451        C460   1.231       .  A
O451       Al458   1.846       .  S
O452       Al458   1.995       .  S
O453        C460   1.247       .  A
O454       Al458   1.757       .  S
O455        C456   1.266       .  A
C456       C1628   1.426       .  S
C457       C2188   1.464       .  S
C460       C1638   1.506       .  S
C461        O462   1.268       .  A
C461       C1608   1.490       .  S
O463        C478   1.262       .  A
O463       Al471   1.863       .  S
C464        O474   1.295       .  A
C464        O465   1.279       .  A
C464       C2381   1.519       .  S
O465       Al467   1.903       .  S
O466        C468   1.247       .  A
O466       Al467   1.865       .  S
Al467       O475   1.890       .  S
Al467       O477   1.839       .  S
Al467       O476   1.754       .  S
C468        O481   1.269       .  A
C468       C2421   1.511       .  S
O469        C479   1.265       .  A
O469       Al471   1.939       .  S
O470        C483   1.285       .  A
O470       Al480   1.969       .  S
Al471       O484   1.947       .  S
Al471       O481   1.967       .  S
Al471       O476   1.783       .  S
O472        C479   1.228       .  A
O472       Al480   1.788       .  S
O473        C482   1.233       .  A
O473       Al480   1.855       .  S
O474       Al480   1.997       .  S
O475        C482   1.241       .  A
O476       Al480   1.751       .  S
O477        C478   1.262       .  A
C478       C1631   1.423       .  S
C479       C2238   1.465       .  S
C482       C1598   1.477       .  S
C483        O484   1.278       .  A
C483       C1588   1.513       .  S
O485        C500   1.270       .  A
O485       Al493   1.916       .  S
C486        O496   1.289       .  A
C486        O487   1.270       .  A
C486       C1621   1.520       .  S
O487       Al489   1.875       .  S
O488        C490   1.248       .  A
O488       Al489   1.885       .  S
Al489       O497   1.926       .  S
Al489       O499   1.849       .  S
Al489       O498   1.766       .  S
C490        O503   1.277       .  A
C490       C1681   1.538       .  S
O491        C501   1.272       .  A
O491       Al493   1.956       .  S
O492        C505   1.272       .  A
O492       Al502   1.944       .  S
Al493       O506   1.874       .  S
Al493       O503   1.995       .  S
Al493       O498   1.789       .  S
O494        C501   1.235       .  A
O494       Al502   1.797       .  S
O495        C504   1.236       .  A
O495       Al502   1.870       .  S
O496       Al502   1.990       .  S
O497        C504   1.249       .  A
O498       Al502   1.772       .  S
O499        C500   1.264       .  A
C500       C1568   1.450       .  S
C501       C2391   1.495       .  S
C504       C1578   1.497       .  S
C505        O506   1.263       .  A
C505       C1558   1.491       .  S
O507        C522   1.273       .  A
O507       Al515   1.905       .  S
C508        O518   1.288       .  A
C508        O509   1.266       .  A
C508       C1978   1.504       .  S
O509       Al511   1.882       .  S
O510        C512   1.252       .  A
O510       Al511   1.906       .  S
Al511       O519   1.951       .  S
Al511       O521   1.873       .  S
Al511       O520   1.792       .  S
C512        O525   1.272       .  A
C512       C2021   1.535       .  S
O513        C523   1.275       .  A
O513       Al515   1.964       .  S
O514        C527   1.269       .  A
O514       Al524   1.953       .  S
Al515       O528   1.854       .  S
Al515       O525   1.966       .  S
Al515       O520   1.782       .  S
O516        C523   1.244       .  A
O516       Al524   1.817       .  S
O517        C526   1.240       .  A
O517       Al524   1.872       .  S
O518       Al524   1.995       .  S
O519        C526   1.258       .  A
O520       Al524   1.771       .  S
O521        C522   1.268       .  A
C522       C1571   1.448       .  S
C523       C2438   1.487       .  S
C526       C1548   1.489       .  S
C527        O528   1.253       .  A
C527       C1538   1.497       .  S
O529        C544   1.252       .  A
O529       Al537   1.854       .  S
C530        O540   1.263       .  A
C530        O531   1.289       .  A
C530       C1518   1.493       .  S
O531       Al533   1.996       .  S
O532        C534   1.245       .  A
O532       Al533   1.818       .  S
Al533       O541   1.882       .  S
Al533       O543   1.959       .  S
Al533       O542   1.775       .  S
C534        O547   1.273       .  A
C534       C1498   1.484       .  S
O535        C545   1.274       .  A
O535       Al537   1.972       .  S
O536        C549   1.266       .  A
O536       Al546   1.865       .  S
Al537       O550   1.911       .  S
Al537       O547   1.966       .  S
Al537       O542   1.784       .  S
O538        C545   1.257       .  A
O538       Al546   1.916       .  S
O539        C548   1.256       .  A
O539       Al546   1.946       .  S
O540       Al546   1.863       .  S
O541        C548   1.242       .  A
O542       Al546   1.791       .  S
O543        C544   1.272       .  A
C544       C1931   1.510   1_556  S
C545       C1511   1.530       .  S
C548       C2298   1.489       .  S
C549        O550   1.272       .  A
C549       C1528   1.441       .  S
O551        C566   1.255       .  A
O551       Al559   1.854   1_556  S
C552        O562   1.275       .  A
C552        O553   1.292       .  A
C552       C1488   1.515       .  S
O553       Al555   1.989       .  S
O554        C556   1.228       .  A
O554       Al555   1.771       .  S
Al555       O563   1.836       .  S
Al555       O565   1.958       .  S
Al555       O564   1.759       .  S
C556        O569   1.270       .  A
C556       C1468   1.490       .  S
O557        C567   1.270       .  A
O557       Al559   1.949       .  S
O558        C571   1.267       .  A
O558       Al568   1.867       .  S
Al559       O572   1.907       .  S
Al559       O569   1.956       .  S
Al559       O564   1.793       .  S
O560        C567   1.256       .  A
O560       Al568   1.918       .  S
O561        C570   1.253       .  A
O561       Al568   1.944       .  S
O562       Al568   1.888       .  S
O563        C570   1.228       .  A
O564       Al568   1.770       .  S
O565        C566   1.275   1_554  A
C566       C1601   1.479       .  S
C567       C1478   1.525       .  S
C570       C1831   1.500       .  S
C571        O572   1.270       .  A
C571       C1531   1.462   1_554  S
O573        C588   1.254       .  A
O573       Al581   1.863       .  S
C574        O584   1.274       .  A
C574        O575   1.292       .  A
C574       C1508   1.536       .  S
O575       Al577   2.002       .  S
O576        C578   1.231       .  A
O576       Al577   1.799       .  S
Al577       O585   1.848       .  S
Al577       O587   1.981       .  S
Al577       O586   1.765       .  S
C578        O591   1.268       .  A
C578       C1438   1.496       .  S
O579        C589   1.273       .  A
O579       Al581   1.949       .  S
O580        C593   1.269       .  A
O580       Al590   1.899       .  S
Al581       O594   1.892       .  S
Al581       O591   1.956       .  S
Al581       O586   1.784       .  S
O582        C589   1.262       .  A
O582       Al590   1.943       .  S
O583        C592   1.258       .  A
O583       Al590   1.964       .  S
O584       Al590   1.901       .  S
O585        C592   1.233       .  A
O586       Al590   1.787       .  S
O587        C588   1.280       .  A
C588       C1818   1.493       .  S
C589       C1458   1.510       .  S
C592       C1611   1.504       .  S
C593        O594   1.269       .  A
C593       C1448   1.472       .  S
O595        C610   1.251       .  A
O595       Al603   1.840       .  S
C596        O606   1.255       .  A
C596        O597   1.296       .  A
C596       C1418   1.546       .  S
O597       Al599   2.031       .  S
O598        C600   1.238       .  A
O598       Al599   1.820       .  S
Al599       O607   1.894       .  S
Al599       O609   1.999       .  S
Al599       O608   1.750       .  S
C600        O613   1.270       .  A
C600       C1408   1.484       .  S
O601        C611   1.277       .  A
O601       Al603   1.954       .  S
O602        C615   1.267       .  A
O602       Al612   1.891       .  S
Al603       O616   1.910       .  S
Al603       O613   1.959       .  S
Al603       O608   1.771       .  S
O604        C611   1.254       .  A
O604       Al612   1.888       .  S
O605        C614   1.252       .  A
O605       Al612   1.926       .  S
O606       Al612   1.850       .  S
O607        C614   1.243       .  A
O608       Al612   1.773       .  S
O609        C610   1.281       .  A
C610       C2431   1.504       .  S
C611       C1428   1.513       .  S
C614       C2198   1.503       .  S
C615        O616   1.271       .  A
C615       C1451   1.446       .  S
O617        C632   1.241       .  A
O617       Al625   1.819       .  S
C618        O628   1.259       .  A
C618        O619   1.298       .  A
C618       C1381   1.502       .  S
O619       Al621   2.019       .  S
O620        C622   1.238       .  A
O620       Al621   1.790       .  S
Al621       O629   1.895       .  S
Al621       O631   1.998       .  S
Al621       O630   1.758       .  S
C622        O635   1.281       .  A
C622       C1368   1.496       .  S
O623        C633   1.269       .  A
O623       Al625   1.944       .  S
O624        C637   1.261       .  A
O624       Al634   1.845       .  S
Al625       O638   1.926       .  S
Al625       O635   2.011       .  S
Al625       O630   1.767       .  S
O626        C633   1.260       .  A
O626       Al634   1.940       .  S
O627        C636   1.261       .  A
O627       Al634   1.965       .  S
O628       Al634   1.846       .  S
O629        C636   1.245       .  A
O630       Al634   1.793       .  S
O631        C632   1.279       .  A
C632       C2311   1.518   1_655  S
C633       C1391   1.531       .  S
C636       C2101   1.506       .  S
C637        O638   1.282       .  A
C637       C1401   1.433       .  S
O639        C654   1.261       .  A
O639       Al647   1.890       .  S
C640        O650   1.264       .  A
C640        O641   1.288       .  A
C640       C1431   1.479       .  S
O641       Al643   1.979       .  S
O642        C644   1.232       .  A
O642       Al643   1.774       .  S
Al643       O651   1.842       .  S
Al643       O653   1.925       .  S
Al643       O652   1.770       .  S
C644        O657   1.272       .  A
C644       C1348   1.490       .  S
O645        C655   1.271       .  A
O645       Al647   1.965       .  S
O646        C659   1.258       .  A
O646       Al656   1.818       .  S
Al647       O660   1.928       .  S
Al647       O657   1.976       .  S
Al647       O652   1.793       .  S
O648        C655   1.255       .  A
O648       Al656   1.917       .  S
O649        C658   1.254       .  A
O649       Al656   1.947       .  S
O650       Al656   1.850       .  S
O651        C658   1.231       .  A
O652       Al656   1.779       .  S
O653        C654   1.267       .  A
C654       C1661   1.475   1_455  S
C655       C1358   1.517       .  S
C658       C1771   1.492       .  S
C659        O660   1.274       .  A
C659       C1398   1.446       .  S
O661        C676   1.251       .  A
O661       Al669   1.848       .  S
C662        O672   1.268       .  A
C662        O663   1.292       .  A
C662       C1361   1.502       .  S
O663       Al665   2.005       .  S
O664        C666   1.245       .  A
O664       Al665   1.807       .  S
Al665       O673   1.888       .  S
Al665       O675   1.950       .  S
Al665       O674   1.767       .  S
C666        O679   1.279       .  A
C666       C1331   1.487       .  S
O667        C677   1.270       .  A
O667       Al669   1.966       .  S
O668        C681   1.270       .  A
O668       Al678   1.875       .  S
Al669       O682   1.920       .  S
Al669       O679   1.974       .  S
Al669       O674   1.773       .  S
O670        C677   1.253       .  A
O670       Al678   1.910       .  S
O671        C680   1.256       .  A
O671       Al678   1.948       .  S
O672       Al678   1.876       .  S
O673        C680   1.242       .  A
O674       Al678   1.782       .  S
O675        C676   1.267       .  A
C676       C1731   1.492       .  S
C677       C1421   1.512       .  S
C680       C2351   1.508       .  S
C681        O682   1.280       .  A
C681       C1341   1.447       .  S
O683        C698   1.260       .  A
O683       Al691   1.873       .  S
C684        O694   1.270       .  A
C684        O685   1.291       .  A
C684       C1318   1.511       .  S
O685       Al687   1.998       .  S
O686        C688   1.233       .  A
O686       Al687   1.785       .  S
Al687       O695   1.854       .  S
Al687       O697   1.960       .  S
Al687       O696   1.762       .  S
C688        O701   1.269       .  A
C688       C1301   1.488       .  S
O689        C699   1.274       .  A
O689       Al691   1.977       .  S
O690        C703   1.266       .  A
O690       Al700   1.866       .  S
Al691       O704   1.926       .  S
Al691       O701   1.954       .  S
Al691       O696   1.785       .  S
O692        C699   1.255       .  A
O692       Al700   1.908       .  S
O693        C702   1.249       .  A
O693       Al700   1.922       .  S
O694       Al700   1.872       .  S
O695        C702   1.231       .  A
O696       Al700   1.772       .  S
O697        C698   1.275       .  A
C698       C2271   1.491       .  S
C699       C1308   1.525       .  S
C702       C1871   1.513       .  S
C703        O704   1.274       .  A
C703       C1338   1.457       .  S
O705        C720   1.246       .  A
O705       Al713   1.829       .  S
C706        O716   1.261       .  A
C706        O707   1.295       .  A
C706       C1268   1.514       .  S
O707       Al709   2.031       .  S
O708        C710   1.241       .  A
O708       Al709   1.799       .  S
Al709       O717   1.893       .  S
Al709       O719   1.977       .  S
Al709       O718   1.757       .  S
C710        O723   1.277       .  A
C710       C1261   1.488       .  S
O711        C721   1.273       .  A
O711       Al713   1.958       .  S
O712        C725   1.262       .  A
O712       Al722   1.863       .  S
Al713       O726   1.930       .  S
Al713       O723   1.980       .  S
Al713       O718   1.773       .  S
O714        C721   1.257       .  A
O714       Al722   1.904       .  S
O715        C724   1.258       .  A
O715       Al722   1.947       .  S
O716       Al722   1.849       .  S
O717        C724   1.244       .  A
O718       Al722   1.776       .  S
O719        C720   1.274       .  A
C720       C2128   1.501   1_565  S
C721       C1278   1.509       .  S
C724       C1911   1.507       .  S
C725        O726   1.277       .  A
C725       C1288   1.439       .  S
O727        C742   1.248       .  A
O727       Al735   1.845   1_565  S
C728        O738   1.264       .  A
C728        O729   1.286       .  A
C728       C1248   1.528       .  S
O729       Al731   1.983       .  S
O730        C732   1.238       .  A
O730       Al731   1.818       .  S
Al731       O739   1.853       .  S
Al731       O741   1.968       .  S
Al731       O740   1.755       .  S
C732        O745   1.272       .  A
C732       C1228   1.482       .  S
O733        C743   1.278       .  A
O733       Al735   1.948       .  S
O734        C747   1.271       .  A
O734       Al744   1.899       .  S
Al735       O748   1.910       .  S
Al735       O745   1.958       .  S
Al735       O740   1.776       .  S
O736        C743   1.258       .  A
O736       Al744   1.899       .  S
O737        C746   1.254       .  A
O737       Al744   1.926       .  S
O738       Al744   1.882       .  S
O739        C746   1.235       .  A
O740       Al744   1.770       .  S
O741        C742   1.271   1_545  A
C742       C1551   1.480       .  S
C743       C1241   1.502       .  S
C746       C1721   1.494       .  S
C747        O748   1.270       .  A
C747       C1291   1.470   1_545  S
O749        C764   1.245       .  A
O749       Al757   1.833       .  S
C750        O760   1.259       .  A
C750        O751   1.288       .  A
C750       C1281   1.515       .  S
O751       Al753   2.014       .  S
O752        C754   1.238       .  A
O752       Al753   1.829       .  S
Al753       O761   1.906       .  S
Al753       O763   2.043       .  S
Al753       O762   1.730       .  S
C754        O767   1.276       .  A
C754       C1201   1.509       .  S
O755        C765   1.281       .  A
O755       Al757   1.966       .  S
O756        C769   1.252       .  A
O756       Al766   1.829       .  S
Al757       O770   1.916       .  S
Al757       O767   2.024       .  S
Al757       O762   1.779       .  S
O758        C765   1.264       .  A
O758       Al766   1.916       .  S
O759        C768   1.263       .  A
O759       Al766   1.949       .  S
O760       Al766   1.855       .  S
O761        C768   1.255       .  A
O762       Al766   1.757       .  S
O763        C764   1.285       .  A
C764       C1891   1.521       .  S
C765       C1218   1.518       .  S
C768       C1561   1.497       .  S
C769        O770   1.274       .  A
C769       C1208   1.423       .  S
O771        C786   1.252       .  A
O771       Al779   1.847       .  S
C772        O782   1.276       .  A
C772        O773   1.296       .  A
C772       C1188   1.519       .  S
O773       Al775   2.007       .  S
O774        C776   1.237       .  A
O774       Al775   1.792       .  S
Al775       O783   1.874       .  S
Al775       O785   1.947       .  S
Al775       O784   1.770       .  S
C776        O789   1.272       .  A
C776       C1178   1.466       .  S
O777        C787   1.268       .  A
O777       Al779   1.940       .  S
O778        C791   1.276       .  A
O778       Al788   1.890       .  S
Al779       O792   1.886       .  S
Al779       O789   1.951       .  S
Al779       O784   1.783       .  S
O780        C787   1.249       .  A
O780       Al788   1.895       .  S
O781        C790   1.252       .  A
O781       Al788   1.940       .  S
O782       Al788   1.907       .  S
O783        C790   1.236       .  A
O784       Al788   1.773       .  S
O785        C786   1.271       .  A
C786       C2031   1.494       .  S
C787       C1491   1.516       .  S
C790       C2398   1.506       .  S
C791        O792   1.269       .  A
C791       C1211   1.449       .  S
O793        C808   1.242       .  A
O793       Al801   1.823       .  S
C794        O804   1.266       .  A
C794        O795   1.291       .  A
C794       C1481   1.507       .  S
O795       Al797   2.009       .  S
O796        C798   1.244       .  A
O796       Al797   1.815       .  S
Al797       O805   1.883       .  S
Al797       O807   1.982       .  S
Al797       O806   1.760       .  S
C798        O811   1.282       .  A
C798       C1441   1.491       .  S
O799        C809   1.271       .  A
O799       Al801   1.937       .  S
O800        C813   1.261       .  A
O800       Al810   1.869       .  S
Al801       O814   1.935       .  S
Al801       O811   2.002       .  S
Al801       O806   1.762       .  S
O802        C809   1.265       .  A
O802       Al810   1.953       .  S
O803        C812   1.266       .  A
O803       Al810   1.963       .  S
O804       Al810   1.884       .  S
O805        C812   1.247       .  A
O806       Al810   1.779       .  S
O807        C808   1.272       .  A
C808       C1791   1.500       .  S
C809       C1191   1.512       .  S
C812       C1951   1.506       .  S
C813        O814   1.280       .  A
C813       C1168   1.454       .  S
O815        C830   1.256       .  A
O815       Al823   1.853       .  S
C816        O826   1.273       .  A
C816        O817   1.298       .  A
C816       C1311   1.523       .  S
O817       Al819   2.023       .  S
O818        C820   1.238       .  A
O818       Al819   1.794       .  S
Al819       O827   1.868       .  S
Al819       O829   1.955       .  S
Al819       O828   1.756       .  S
C820        O833   1.272       .  A
C820       C1411   1.483       .  S
O821        C831   1.271       .  A
O821       Al823   1.965       .  S
O822        C835   1.278       .  A
O822       Al832   1.899       .  S
Al823       O836   1.931       .  S
Al823       O833   1.950       .  S
Al823       O828   1.769       .  S
O824        C831   1.244       .  A
O824       Al832   1.882       .  S
O825        C834   1.247       .  A
O825       Al832   1.922       .  S
O826       Al832   1.881       .  S
O827        C834   1.235       .  A
O828       Al832   1.770       .  S
O829        C830   1.273       .  A
C830       C2488   1.489       .  S
C831       C1158   1.517       .  S
C834       C1738   1.492       .  S
C835        O836   1.279       .  A
C835       C1171   1.468       .  S
O837        C852   1.251       .  A
O837       Al845   1.845       .  S
C838        O848   1.263       .  A
C838        O839   1.292       .  A
C838       C1388   1.516       .  S
O839       Al841   2.019       .  S
O840        C842   1.242       .  A
O840       Al841   1.823       .  S
Al841       O849   1.886       .  S
Al841       O851   1.996       .  S
Al841       O850   1.763       .  S
C842        O855   1.275       .  A
C842       C1328   1.502       .  S
O843        C853   1.278       .  A
O843       Al845   1.975       .  S
O844        C857   1.266       .  A
O844       Al854   1.872       .  S
Al845       O858   1.910       .  S
Al845       O855   1.972       .  S
Al845       O850   1.780       .  S
O846        C853   1.258       .  A
O846       Al854   1.909       .  S
O847        C856   1.257       .  A
O847       Al854   1.948       .  S
O848       Al854   1.866       .  S
O849        C856   1.244       .  A
O850       Al854   1.785       .  S
O851        C852   1.277       .  A
C852       C1761   1.515       .  S
C853       C1148   1.526       .  S
C856       C1671   1.492       .  S
C857        O858   1.273       .  A
C857       C1138   1.444       .  S
O859        C874   1.255       .  A
O859       Al867   1.843       .  S
C860        O870   1.266       .  A
C860        O861   1.291       .  A
C860       C1131   1.533       .  S
O861       Al863   2.001       .  S
O862        C864   1.238       .  A
O862       Al863   1.807       .  S
Al863       O871   1.875       .  S
Al863       O873   1.965       .  S
Al863       O872   1.773       .  S
C864        O877   1.266       .  A
C864       C1298   1.481       .  S
O865        C875   1.269       .  A
O865       Al867   1.950       .  S
O866        C879   1.264       .  A
O866       Al876   1.858       .  S
Al867       O880   1.914       .  S
Al867       O877   1.938       .  S
Al867       O872   1.787       .  S
O868        C875   1.255       .  A
O868       Al876   1.914       .  S
O869        C878   1.255       .  A
O869       Al876   1.946       .  S
O870       Al876   1.872       .  S
O871        C878   1.238       .  A
O872       Al876   1.775       .  S
O873        C874   1.275       .  A
C874       C2228   1.495       .  S
C875       C1251   1.499       .  S
C878       C1998   1.504       .  S
C879        O880   1.270       .  A
C879       C1141   1.454       .  S
O881        C896   1.276       .  A
O881       Al889   1.942       .  S
C882        O892   1.279       .  A
C882        O883   1.283       .  A
C882       C1238   1.503       .  S
O883       Al885   1.942       .  S
O884        C886   1.243       .  A
O884       Al885   1.864       .  S
Al885       O893   1.899       .  S
Al885       O895   1.909       .  S
Al885       O894   1.787       .  S
C886        O899   1.262       .  A
C886       C1198   1.466       .  S
O887        C897   1.272       .  A
O887       Al889   1.968       .  S
O888        C901   1.262       .  A
O888       Al898   1.871       .  S
Al889       O902   1.837       .  S
Al889       O899   1.929       .  S
Al889       O894   1.792       .  S
O890        C897   1.248       .  A
O890       Al898   1.863       .  S
O891        C900   1.245       .  A
O891       Al898   1.897       .  S
O892       Al898   1.936       .  S
O893        C900   1.243       .  A
O894       Al898   1.772       .  S
O895        C896   1.269       .  A
C896       C1861   1.477       .  S
C897       C1128   1.514       .  S
C900       C2151   1.516       .  S
C901        O902   1.251       .  A
C901       C1118   1.450       .  S
O903        C918   1.250       .  A
O903       Al911   1.855       .  S
C904        O914   1.265       .  A
C904        O905   1.301       .  A
C904       C1161   1.503       .  S
O905       Al907   2.029       .  S
O906        C908   1.230       .  A
O906       Al907   1.744       .  S
Al907       O915   1.861       .  S
Al907       O917   1.963       .  S
Al907       O916   1.747       .  S
C908        O921   1.277       .  A
C908       C1181   1.476       .  S
O909        C919   1.267       .  A
O909       Al911   1.966       .  S
O910        C923   1.267       .  A
O910       Al920   1.848       .  S
Al911       O924   1.932       .  S
Al911       O921   1.971       .  S
Al911       O916   1.761       .  S
O912        C919   1.248       .  A
O912       Al920   1.892       .  S
O913        C922   1.253       .  A
O913       Al920   1.942       .  S
O914       Al920   1.853       .  S
O915        C922   1.237       .  A
O916       Al920   1.776       .  S
O917        C918   1.272       .  A
C918       C2081   1.517       .  S
C919       C1321   1.514       .  S
C922       C1801   1.482       .  S
C923        O924   1.286       .  A
C923       C1121   1.429       .  S
O925        C940   1.255       .  A
O925       Al933   1.879       .  S
C926        O936   1.264       .  A
C926        O927   1.286       .  A
C926       C1098   1.525       .  S
O927       Al929   2.003       .  S
O928        C930   1.235       .  A
O928       Al929   1.827       .  S
Al929       O937   1.890       .  S
Al929       O939   1.997       .  S
Al929       O938   1.760       .  S
C930        O943   1.275       .  A
C930       C1501   1.509       .  S
O931        C941   1.285       .  A
O931       Al933   1.980       .  S
O932        C945   1.269       .  A
O932       Al942   1.878       .  S
Al933       O946   1.895       .  S
Al933       O943   1.986       .  S
Al933       O938   1.789       .  S
O934        C941   1.262       .  A
O934       Al942   1.922       .  S
O935        C944   1.263       .  A
O935       Al942   1.972       .  S
O936       Al942   1.874       .  S
O937        C944   1.246       .  A
O938       Al942   1.773       .  S
O939        C940   1.280       .  A
C940       C1971   1.508   1_556  S
C941       C1088   1.519       .  S
C944       C1651   1.513       .  S
C945        O946   1.264       .  A
C945       C1108   1.455       .  S
O947        C962   1.251       .  A
O947       Al955   1.844   1_556  S
C948        O958   1.266       .  A
C948        O949   1.296       .  A
C948       C1221   1.511       .  S
O949       Al951   2.023       .  S
O950        C952   1.240       .  A
O950       Al951   1.800       .  S
Al951       O959   1.877       .  S
Al951       O961   1.974       .  S
Al951       O960   1.756       .  S
C952        O965   1.272       .  A
C952       C1471   1.481       .  S
O953        C963   1.270       .  A
O953       Al955   1.965       .  S
O954        C967   1.268       .  A
O954       Al964   1.866       .  S
Al955       O968   1.912       .  S
Al955       O965   1.951       .  S
Al955       O960   1.773       .  S
O956        C963   1.254       .  A
O956       Al964   1.913       .  S
O957        C966   1.252       .  A
O957       Al964   1.938       .  S
O958       Al964   1.847       .  S
O959        C966   1.241       .  A
O960       Al964   1.781       .  S
O961        C962   1.276   1_554  A
C962       C1641   1.501       .  S
C963       C1271   1.525       .  S
C966       C2051   1.489       .  S
C967        O968   1.278       .  A
C967       C1111   1.432       .  S
O969        C984   1.253       .  A
O969       Al977   1.840       .  S
C970        O980   1.266       .  A
C970        O971   1.295       .  A
C970       C1091   1.552       .  S
O971       Al973   2.009       .  S
O972        C974   1.237       .  A
O972       Al973   1.814       .  S
Al973       O981   1.890       .  S
Al973       O983   1.981       .  S
Al973       O982   1.766       .  S
C974        O987   1.269       .  A
C974       C1258   1.492       .  S
O975        C985   1.267       .  A
O975       Al977   1.939       .  S
O976        C989   1.264       .  A
O976       Al986   1.860       .  S
Al977       O990   1.914       .  S
Al977       O987   1.947       .  S
Al977       O982   1.781       .  S
O978        C985   1.257       .  A
O978       Al986   1.923       .  S
O979        C988   1.256       .  A
O979       Al986   1.953       .  S
O980       Al986   1.886       .  S
O981        C988   1.240       .  A
O982       Al986   1.792       .  S
O983        C984   1.278       .  A
C984       C2171   1.496   1_565  S
C985       C1068   1.514       .  S
C988       C1591   1.512       .  S
C989        O990   1.274       .  A
C989       C1078   1.458       .  S
O991       C1006   1.262       .  A
O991       Al999   1.874   1_565  S
C992       O1002   1.270       .  A
C992        O993   1.291       .  A
C992       C1151   1.525       .  S
O993       Al995   2.001       .  S
O994        C996   1.235       .  A
O994       Al995   1.796       .  S
Al995      O1003   1.869       .  S
Al995      O1005   1.948       .  S
Al995      O1004   1.772       .  S
C996       O1009   1.265       .  A
C996       C1231   1.476       .  S
O997       C1007   1.271       .  A
O997       Al999   1.969       .  S
O998       C1011   1.264       .  A
O998      Al1008   1.861       .  S
Al999      O1012   1.910       .  S
Al999      O1009   1.928       .  S
Al999      O1004   1.790       .  S
O1000      C1007   1.244       .  A
O1000     Al1008   1.865       .  S
O1001      C1010   1.247       .  A
O1001     Al1008   1.913       .  S
O1002     Al1008   1.881       .  S
O1003      C1010   1.237       .  A
O1004     Al1008   1.773       .  S
O1005      C1006   1.274   1_545  A
C1006      C1581   1.490       .  S
C1007      C1378   1.515       .  S
C1010      C2248   1.495       .  S
C1011      O1012   1.267       .  A
C1011      C1081   1.449       .  S
O1013      C1028   1.267       .  A
O1013     Al1021   1.922       .  S
C1014      O1024   1.268       .  A
C1014      O1015   1.291       .  A
C1014      C1071   1.505       .  S
O1015     Al1017   1.998       .  S
O1016      C1018   1.245       .  A
O1016     Al1017   1.811       .  S
Al1017     O1025   1.875       .  S
Al1017     O1027   1.920       .  S
Al1017     O1026   1.768       .  S
C1018      O1031   1.268       .  A
C1018      C1371   1.486       .  S
O1019      C1029   1.277       .  A
O1019     Al1021   1.989       .  S
O1020      C1033   1.270       .  A
O1020     Al1030   1.871       .  S
Al1021     O1034   1.896       .  S
Al1021     O1031   1.968       .  S
Al1021     O1026   1.795       .  S
O1022      C1029   1.247       .  A
O1022     Al1030   1.878       .  S
O1023      C1032   1.249       .  A
O1023     Al1030   1.928       .  S
O1024     Al1030   1.885       .  S
O1025      C1032   1.237       .  A
O1026     Al1030   1.774       .  S
O1027      C1028   1.264       .  A
C1028      C2368   1.490   1_655  S
C1029      C1101   1.520       .  S
C1032      C1541   1.505       .  S
C1033      O1034   1.269       .  A
C1033      C1058   1.443       .  S
O1035      C1050   1.242       .  A
O1035     Al1043   1.811       .  S
C1036      O1046   1.257       .  A
C1036      O1037   1.292       .  A
C1036      C1461   1.538       .  S
O1037     Al1039   2.014       .  S
O1038      C1040   1.243       .  A
O1038     Al1039   1.807       .  S
Al1039     O1047   1.901       .  S
Al1039     O1049   2.015       .  S
Al1039     O1048   1.764       .  S
C1040      O1053   1.271       .  A
C1040      C1351   1.482       .  S
O1041      C1051   1.268       .  A
O1041     Al1043   1.913       .  S
O1042      C1055   1.258       .  A
O1042     Al1052   1.856       .  S
Al1043     O1056   1.918       .  S
Al1043     O1053   1.991       .  S
Al1043     O1048   1.774       .  S
O1044      C1051   1.269       .  A
O1044     Al1052   1.951       .  S
O1045      C1054   1.267       .  A
O1045     Al1052   1.961       .  S
O1046     Al1052   1.869       .  S
O1047      C1054   1.251       .  A
O1048     Al1052   1.781       .  S
O1049      C1050   1.281       .  A
C1050      C1711   1.500   1_455  S
C1051      C1521   1.520       .  S
C1054      C2451   1.501       .  S
C1055      O1056   1.272       .  A
C1055      C1061   1.451       .  S
C1057      C1058   1.414   1_455  A
C1057      C1062   1.391       .  A
C1057     Br1064   1.927       .  S
C1058      C1059   1.407       .  A
C1059      C1060   1.386       .  A
C1059     Br1066   1.938       .  S
C1060      C1061   1.400   1_655  A
C1060     Br1065   1.913       .  S
C1061      C1062   1.395       .  A
C1062     Br1063   1.932       .  S
C1067      C1068   1.410       .  A
C1067      C1072   1.417       .  A
C1067     Br1074   1.933       .  S
C1068      C1069   1.427       .  A
C1069      C1070   1.419       .  A
C1069     Br1076   1.919       .  S
C1070      C1071   1.403       .  A
C1070     Br1075   1.931       .  S
C1071      C1072   1.422       .  A
C1072     Br1073   1.920       .  S
C1077      C1078   1.405       .  A
C1077      C1082   1.395       .  A
C1077     Br1084   1.938       .  S
C1078      C1079   1.405       .  A
C1079      C1080   1.387   1_565  A
C1079     Br1086   1.912   1_565  S
C1080      C1081   1.400       .  A
C1080     Br1085   1.926       .  S
C1081      C1082   1.408   1_545  A
C1082     Br1083   1.910       .  S
C1087      C1088   1.401       .  A
C1087      C1092   1.423       .  A
C1087     Br1094   1.924       .  S
C1088      C1089   1.418       .  A
C1089      C1090   1.434       .  A
C1089     Br1096   1.926       .  S
C1090      C1091   1.427       .  A
C1090     Br1095   1.922       .  S
C1091      C1092   1.441       .  A
C1092     Br1093   1.936       .  S
C1097      C1098   1.426       .  A
C1097      C1102   1.432       .  A
C1097     Br1104   1.923       .  S
C1098      C1099   1.415       .  A
C1099      C1100   1.414       .  A
C1099     Br1106   1.938       .  S
C1100      C1101   1.424       .  A
C1100     Br1105   1.937       .  S
C1101      C1102   1.417       .  A
C1102     Br1103   1.929       .  S
C1107      C1108   1.423       .  A
C1107      C1112   1.388   1_556  A
C1107     Br1114   1.943   1_556  S
C1108      C1109   1.413       .  A
C1109      C1110   1.393       .  A
C1109     Br1116   1.938       .  S
C1110      C1111   1.400   1_556  A
C1110     Br1115   1.921       .  S
C1111      C1112   1.394       .  A
C1112     Br1113   1.935       .  S
C1117      C1118   1.426       .  A
C1117      C1122   1.387       .  A
C1117     Br1124   1.945       .  S
C1118      C1119   1.413       .  A
C1119      C1120   1.386       .  A
C1119     Br1126   1.939       .  S
C1120      C1121   1.393       .  A
C1120     Br1125   1.917       .  S
C1121      C1122   1.397       .  A
C1122     Br1123   1.938       .  S
C1127      C1128   1.416       .  A
C1127      C1132   1.430       .  A
C1127     Br1134   1.931       .  S
C1128      C1129   1.415       .  A
C1129      C1130   1.416       .  A
C1129     Br1136   1.938       .  S
C1130      C1131   1.430       .  A
C1130     Br1135   1.942       .  S
C1131      C1132   1.427       .  A
C1132     Br1133   1.926       .  S
C1137      C1138   1.399       .  A
C1137      C1142   1.395       .  A
C1137     Br1144   1.937       .  S
C1138      C1139   1.403       .  A
C1139      C1140   1.389       .  A
C1139     Br1146   1.915       .  S
C1140      C1141   1.408       .  A
C1140     Br1145   1.941       .  S
C1141      C1142   1.414       .  A
C1142     Br1143   1.916       .  S
C1147      C1148   1.423       .  A
C1147      C1152   1.416       .  A
C1147     Br1154   1.937       .  S
C1148      C1149   1.420       .  A
C1149      C1150   1.432       .  A
C1149     Br1156   1.928       .  S
C1150      C1151   1.425       .  A
C1150     Br1155   1.924       .  S
C1151      C1152   1.416       .  A
C1152     Br1153   1.937       .  S
C1157      C1158   1.410       .  A
C1157      C1162   1.411       .  A
C1157     Br1164   1.938       .  S
C1158      C1159   1.439       .  A
C1159      C1160   1.418       .  A
C1159     Br1166   1.937       .  S
C1160      C1161   1.403       .  A
C1160     Br1165   1.935       .  S
C1161      C1162   1.422       .  A
C1162     Br1163   1.903       .  S
C1167      C1168   1.397       .  A
C1167      C1172   1.394       .  A
C1167     Br1174   1.918       .  S
C1168      C1169   1.395       .  A
C1169      C1170   1.397       .  A
C1169     Br1176   1.936       .  S
C1170      C1171   1.420       .  A
C1170     Br1175   1.913       .  S
C1171      C1172   1.411       .  A
C1172     Br1173   1.925       .  S
C1177      C1178   1.387       .  A
C1177      C1182   1.392       .  A
C1177     Br1184   1.921       .  S
C1178      C1179   1.435       .  A
C1179      C1180   1.407       .  A
C1179     Br1186   1.916       .  S
C1180      C1181   1.396       .  A
C1180     Br1185   1.932       .  S
C1181      C1182   1.427       .  A
C1182     Br1183   1.930       .  S
C1187      C1188   1.423       .  A
C1187      C1192   1.410       .  A
C1187     Br1194   1.893       .  S
C1188      C1189   1.409       .  A
C1189      C1190   1.427       .  A
C1189     Br1196   1.927       .  S
C1190      C1191   1.422       .  A
C1190     Br1195   1.912       .  S
C1191      C1192   1.396       .  A
C1192     Br1193   1.924       .  S
C1197      C1198   1.384       .  A
C1197      C1202   1.363   1_545  A
C1197     Br1204   1.892       .  S
C1198      C1199   1.418   1_545  A
C1199      C1200   1.430       .  A
C1199     Br1206   1.921   1_565  S
C1200      C1201   1.419       .  A
C1200     Br1205   1.917       .  S
C1201      C1202   1.418       .  A
C1202     Br1203   1.925       .  S
C1207      C1208   1.389       .  A
C1207      C1212   1.383       .  A
C1207     Br1214   1.948       .  S
C1208      C1209   1.394       .  A
C1209      C1210   1.388       .  A
C1209     Br1216   1.918       .  S
C1210      C1211   1.409       .  A
C1210     Br1215   1.930       .  S
C1211      C1212   1.422       .  A
C1212     Br1213   1.910       .  S
C1217      C1218   1.421       .  A
C1217      C1222   1.409       .  A
C1217     Br1224   1.928       .  S
C1218      C1219   1.420       .  A
C1219      C1220   1.429       .  A
C1219     Br1226   1.928       .  S
C1220      C1221   1.418       .  A
C1220     Br1225   1.915       .  S
C1221      C1222   1.412       .  A
C1222     Br1223   1.938       .  S
C1227      C1228   1.436       .  A
C1227      C1232   1.402       .  A
C1227     Br1234   1.928       .  S
C1228      C1229   1.397       .  A
C1229      C1230   1.402       .  A
C1229     Br1236   1.936       .  S
C1230      C1231   1.431       .  A
C1230     Br1235   1.932       .  S
C1231      C1232   1.392       .  A
C1232     Br1233   1.938       .  S
C1237      C1238   1.425       .  A
C1237      C1242   1.414       .  A
C1237     Br1244   1.914       .  S
C1238      C1239   1.403       .  A
C1239      C1240   1.416       .  A
C1239     Br1246   1.930       .  S
C1240      C1241   1.427       .  A
C1240     Br1245   1.931       .  S
C1241      C1242   1.403       .  A
C1242     Br1243   1.936       .  S
C1247      C1248   1.420       .  A
C1247      C1252   1.423       .  A
C1247     Br1254   1.931       .  S
C1248      C1249   1.434       .  A
C1249      C1250   1.414       .  A
C1249     Br1256   1.921       .  S
C1250      C1251   1.396       .  A
C1250     Br1255   1.930       .  S
C1251      C1252   1.417       .  A
C1252     Br1253   1.926       .  S
C1257      C1258   1.397       .  A
C1257      C1262   1.406       .  A
C1257     Br1264   1.933       .  S
C1258      C1259   1.436       .  A
C1259      C1260   1.408   1_556  A
C1259     Br1266   1.927       .  S
C1260      C1261   1.392       .  A
C1260     Br1265   1.930       .  S
C1261      C1262   1.430   1_554  A
C1262     Br1263   1.924       .  S
C1267      C1268   1.413       .  A
C1267      C1272   1.415       .  A
C1267     Br1274   1.935       .  S
C1268      C1269   1.419       .  A
C1269      C1270   1.429       .  A
C1269     Br1276   1.919       .  S
C1270      C1271   1.421       .  A
C1270     Br1275   1.928       .  S
C1271      C1272   1.424       .  A
C1272     Br1273   1.936       .  S
C1277      C1278   1.418       .  A
C1277      C1282   1.411       .  A
C1277     Br1284   1.933       .  S
C1278      C1279   1.418       .  A
C1279      C1280   1.426       .  A
C1279     Br1286   1.930       .  S
C1280      C1281   1.416       .  A
C1280     Br1285   1.910       .  S
C1281      C1282   1.413       .  A
C1282     Br1283   1.932       .  S
C1287      C1288   1.398       .  A
C1287      C1292   1.398   1_565  A
C1287     Br1294   1.923       .  S
C1288      C1289   1.394       .  A
C1289      C1290   1.391       .  A
C1289     Br1296   1.938       .  S
C1290      C1291   1.424       .  A
C1290     Br1295   1.930       .  S
C1291      C1292   1.416   1_565  A
C1292     Br1293   1.932       .  S
C1297      C1298   1.430       .  A
C1297      C1302   1.405       .  A
C1297     Br1304   1.928       .  S
C1298      C1299   1.394       .  A
C1299      C1300   1.403       .  A
C1299     Br1306   1.933       .  S
C1300      C1301   1.435       .  A
C1300     Br1305   1.934       .  S
C1301      C1302   1.397       .  A
C1302     Br1303   1.931       .  S
C1307      C1308   1.414       .  A
C1307      C1312   1.429       .  A
C1307     Br1314   1.922       .  S
C1308      C1309   1.421       .  A
C1309      C1310   1.418       .  A
C1309     Br1316   1.933       .  S
C1310      C1311   1.418       .  A
C1310     Br1315   1.936       .  S
C1311      C1312   1.423       .  A
C1312     Br1313   1.921       .  S
C1317      C1318   1.411       .  A
C1317      C1322   1.412       .  A
C1317     Br1324   1.935       .  S
C1318      C1319   1.420       .  A
C1319      C1320   1.426       .  A
C1319     Br1326   1.919       .  S
C1320      C1321   1.418       .  A
C1320     Br1325   1.930       .  S
C1321      C1322   1.423       .  A
C1322     Br1323   1.936       .  S
C1327      C1328   1.402       .  A
C1327      C1332   1.409   1_655  A
C1327     Br1334   1.931       .  S
C1328      C1329   1.441       .  A
C1329      C1330   1.409   1_655  A
C1329     Br1336   1.922       .  S
C1330      C1331   1.387       .  A
C1330     Br1335   1.931       .  S
C1331      C1332   1.426       .  A
C1332     Br1333   1.925       .  S
C1337      C1338   1.411       .  A
C1337      C1342   1.392       .  A
C1337     Br1344   1.940       .  S
C1338      C1339   1.415       .  A
C1339      C1340   1.395       .  A
C1339     Br1346   1.923       .  S
C1340      C1341   1.400       .  A
C1340     Br1345   1.934       .  S
C1341      C1342   1.401       .  A
C1342     Br1343   1.917       .  S
C1347      C1348   1.407       .  A
C1347      C1352   1.418       .  A
C1347     Br1354   1.933   1_455  S
C1348      C1349   1.425       .  A
C1349      C1350   1.401       .  A
C1349     Br1356   1.936       .  S
C1350      C1351   1.403       .  A
C1350     Br1355   1.937       .  S
C1351      C1352   1.421       .  A
C1352     Br1353   1.906   1_455  S
C1357      C1358   1.425       .  A
C1357      C1362   1.416       .  A
C1357     Br1364   1.911       .  S
C1358      C1359   1.409       .  A
C1359      C1360   1.420       .  A
C1359     Br1366   1.924       .  S
C1360      C1361   1.420       .  A
C1360     Br1365   1.919       .  S
C1361      C1362   1.401       .  A
C1362     Br1363   1.929       .  S
C1367      C1368   1.424       .  A
C1367      C1372   1.430   1_545  A
C1367     Br1374   1.918   1_655  S
C1368      C1369   1.413   1_545  A
C1369      C1370   1.394       .  A
C1369     Br1376   1.903   1_565  S
C1370      C1371   1.398       .  A
C1370     Br1375   1.920       .  S
C1371      C1372   1.412       .  A
C1372     Br1373   1.924   1_655  S
C1377      C1378   1.407       .  A
C1377      C1382   1.418       .  A
C1377     Br1384   1.933       .  S
C1378      C1379   1.429       .  A
C1379      C1380   1.413       .  A
C1379     Br1386   1.934       .  S
C1380      C1381   1.404       .  A
C1380     Br1385   1.930       .  S
C1381      C1382   1.427       .  A
C1382     Br1383   1.916       .  S
C1387      C1388   1.418       .  A
C1387      C1392   1.427       .  A
C1387     Br1394   1.922       .  S
C1388      C1389   1.412       .  A
C1389      C1390   1.419       .  A
C1389     Br1396   1.936       .  S
C1390      C1391   1.429       .  A
C1390     Br1395   1.935       .  S
C1391      C1392   1.425       .  A
C1392     Br1393   1.933       .  S
C1397      C1398   1.411   1_655  A
C1397      C1402   1.392       .  A
C1397     Br1404   1.934       .  S
C1398      C1399   1.420       .  A
C1399      C1400   1.382       .  A
C1399     Br1406   1.950       .  S
C1400      C1401   1.392   1_455  A
C1400     Br1405   1.922       .  S
C1401      C1402   1.401       .  A
C1402     Br1403   1.931       .  S
C1407      C1408   1.433       .  A
C1407      C1412   1.405       .  A
C1407     Br1414   1.922       .  S
C1408      C1409   1.395       .  A
C1409      C1410   1.403       .  A
C1409     Br1416   1.935       .  S
C1410      C1411   1.432       .  A
C1410     Br1415   1.928       .  S
C1411      C1412   1.393       .  A
C1412     Br1413   1.933       .  S
C1417      C1418   1.434       .  A
C1417      C1422   1.413       .  A
C1417     Br1424   1.924       .  S
C1418      C1419   1.419       .  A
C1419      C1420   1.436       .  A
C1419     Br1426   1.912       .  S
C1420      C1421   1.421       .  A
C1420     Br1425   1.927       .  S
C1421      C1422   1.403       .  A
C1422     Br1423   1.935       .  S
C1427      C1428   1.416       .  A
C1427      C1432   1.413       .  A
C1427     Br1434   1.936       .  S
C1428      C1429   1.443       .  A
C1429      C1430   1.409       .  A
C1429     Br1436   1.948       .  S
C1430      C1431   1.396       .  A
C1430     Br1435   1.939       .  S
C1431      C1432   1.414       .  A
C1432     Br1433   1.917       .  S
C1437      C1438   1.441       .  A
C1437      C1442   1.411   1_556  A
C1437     Br1444   1.937       .  S
C1438      C1439   1.398       .  A
C1439      C1440   1.406       .  A
C1439     Br1446   1.937       .  S
C1440      C1441   1.429   1_556  A
C1440     Br1445   1.919   1_556  S
C1441      C1442   1.393       .  A
C1442     Br1443   1.932       .  S
C1447      C1448   1.419       .  A
C1447      C1452   1.411       .  A
C1447     Br1454   1.929       .  S
C1448      C1449   1.413       .  A
C1449      C1450   1.372       .  A
C1449     Br1456   1.942       .  S
C1450      C1451   1.392       .  A
C1450     Br1455   1.904       .  S
C1451      C1452   1.406       .  A
C1452     Br1453   1.926       .  S
C1457      C1458   1.421       .  A
C1457      C1462   1.429       .  A
C1457     Br1464   1.921       .  S
C1458      C1459   1.395       .  A
C1459      C1460   1.417       .  A
C1459     Br1466   1.936       .  S
C1460      C1461   1.441       .  A
C1460     Br1465   1.920       .  S
C1461      C1462   1.419       .  A
C1462     Br1463   1.930       .  S
C1467      C1468   1.441       .  A
C1467      C1472   1.404       .  A
C1467     Br1474   1.938       .  S
C1468      C1469   1.396       .  A
C1469      C1470   1.403       .  A
C1469     Br1476   1.933       .  S
C1470      C1471   1.430       .  A
C1470     Br1475   1.924   1_554  S
C1471      C1472   1.391       .  A
C1472     Br1473   1.932       .  S
C1477      C1478   1.415       .  A
C1477      C1482   1.420       .  A
C1477     Br1484   1.931       .  S
C1478      C1479   1.435       .  A
C1479      C1480   1.422       .  A
C1479     Br1486   1.929       .  S
C1480      C1481   1.401       .  A
C1480     Br1485   1.927       .  S
C1481      C1482   1.413       .  A
C1482     Br1483   1.912       .  S
C1487      C1488   1.420       .  A
C1487      C1492   1.423       .  A
C1487     Br1494   1.916       .  S
C1488      C1489   1.414       .  A
C1489      C1490   1.415       .  A
C1489     Br1496   1.937       .  S
C1490      C1491   1.425       .  A
C1490     Br1495   1.936       .  S
C1491      C1492   1.416       .  A
C1492     Br1493   1.933       .  S
C1497      C1498   1.419       .  A
C1497      C1502   1.411   1_455  A
C1497     Br1504   1.920       .  S
C1498      C1499   1.384       .  A
C1499      C1500   1.409   1_455  A
C1499     Br1506   1.931       .  S
C1500      C1501   1.447       .  A
C1500     Br1505   1.929       .  S
C1501      C1502   1.408       .  A
C1502     Br1503   1.932       .  S
C1507      C1508   1.428       .  A
C1507      C1512   1.433       .  A
C1507     Br1514   1.927       .  S
C1508      C1509   1.422       .  A
C1509      C1510   1.421       .  A
C1509     Br1516   1.936       .  S
C1510      C1511   1.422       .  A
C1510     Br1515   1.936       .  S
C1511      C1512   1.420       .  A
C1512     Br1513   1.931       .  S
C1517      C1518   1.413       .  A
C1517      C1522   1.416       .  A
C1517     Br1524   1.915       .  S
C1518      C1519   1.400       .  A
C1519      C1520   1.417       .  A
C1519     Br1526   1.932       .  S
C1520      C1521   1.429       .  A
C1520     Br1525   1.915       .  S
C1521      C1522   1.418       .  A
C1522     Br1523   1.936       .  S
C1527      C1528   1.405       .  A
C1527      C1532   1.390       .  A
C1527     Br1534   1.917   1_556  S
C1528      C1529   1.398       .  A
C1529      C1530   1.394       .  A
C1529     Br1536   1.937       .  S
C1530      C1531   1.422       .  A
C1530     Br1535   1.932       .  S
C1531      C1532   1.412       .  A
C1532     Br1533   1.943   1_556  S
C1537      C1538   1.415       .  A
C1537      C1542   1.407       .  A
C1537     Br1544   1.939       .  S
C1538      C1539   1.409       .  A
C1539      C1540   1.419       .  A
C1539     Br1546   1.926       .  S
C1540      C1541   1.424       .  A
C1540     Br1545   1.932       .  S
C1541      C1542   1.416       .  A
C1542     Br1543   1.927       .  S
C1547      C1548   1.409       .  A
C1547      C1552   1.418       .  A
C1547     Br1554   1.926       .  S
C1548      C1549   1.412       .  A
C1549      C1550   1.404       .  A
C1549     Br1556   1.915       .  S
C1550      C1551   1.404       .  A
C1550     Br1555   1.927       .  S
C1551      C1552   1.415       .  A
C1552     Br1553   1.927       .  S
C1557      C1558   1.414       .  A
C1557      C1562   1.421       .  A
C1557     Br1564   1.927       .  S
C1558      C1559   1.411       .  A
C1559      C1560   1.401       .  A
C1559     Br1566   1.940       .  S
C1560      C1561   1.413       .  A
C1560     Br1565   1.918       .  S
C1561      C1562   1.417       .  A
C1562     Br1563   1.928       .  S
C1567      C1568   1.407       .  A
C1567      C1572   1.387       .  A
C1567     Br1574   1.941       .  S
C1568      C1569   1.412       .  A
C1569      C1570   1.397       .  A
C1569     Br1576   1.920       .  S
C1570      C1571   1.401       .  A
C1570     Br1575   1.932       .  S
C1571      C1572   1.403       .  A
C1572     Br1573   1.916       .  S
C1577      C1578   1.412       .  A
C1577      C1582   1.403       .  A
C1577     Br1584   1.917       .  S
C1578      C1579   1.418       .  A
C1579      C1580   1.420       .  A
C1579     Br1586   1.929       .  S
C1580      C1581   1.413       .  A
C1580     Br1585   1.929       .  S
C1581      C1582   1.414       .  A
C1582     Br1583   1.941       .  S
C1587      C1588   1.418       .  A
C1587      C1592   1.427       .  A
C1587     Br1594   1.919       .  S
C1588      C1589   1.411       .  A
C1589      C1590   1.416       .  A
C1589     Br1596   1.931       .  S
C1590      C1591   1.416       .  A
C1590     Br1595   1.920       .  S
C1591      C1592   1.414       .  A
C1592     Br1593   1.927       .  S
C1597      C1598   1.409       .  A
C1597      C1602   1.412       .  A
C1597     Br1604   1.931       .  S
C1598      C1599   1.410       .  A
C1599      C1600   1.403       .  A
C1599     Br1606   1.931       .  S
C1600      C1601   1.413       .  A
C1600     Br1605   1.931       .  S
C1601      C1602   1.415       .  A
C1602     Br1603   1.924       .  S
C1607      C1608   1.398       .  A
C1607      C1612   1.408       .  A
C1607     Br1614   1.929       .  S
C1608      C1609   1.413       .  A
C1609      C1610   1.421       .  A
C1609     Br1616   1.923       .  S
C1610      C1611   1.410       .  A
C1610     Br1615   1.925       .  S
C1611      C1612   1.420       .  A
C1612     Br1613   1.907       .  S
C1617      C1618   1.413       .  A
C1617      C1622   1.427       .  A
C1617     Br1624   1.929       .  S
C1618      C1619   1.414       .  A
C1619      C1620   1.410       .  A
C1619     Br1626   1.932       .  S
C1620      C1621   1.418       .  A
C1620     Br1625   1.935       .  S
C1621      C1622   1.426       .  A
C1622     Br1623   1.919       .  S
C1627      C1628   1.415       .  A
C1627      C1632   1.379       .  A
C1627     Br1634   1.942       .  S
C1628      C1629   1.407       .  A
C1629      C1630   1.383       .  A
C1629     Br1636   1.943       .  S
C1630      C1631   1.409       .  A
C1630     Br1635   1.935       .  S
C1631      C1632   1.404       .  A
C1632     Br1633   1.947       .  S
C1637      C1638   1.428       .  A
C1637      C1642   1.417       .  A
C1637     Br1644   1.934       .  S
C1638      C1639   1.417       .  A
C1639      C1640   1.410       .  A
C1639     Br1646   1.935       .  S
C1640      C1641   1.420       .  A
C1640     Br1645   1.939       .  S
C1641      C1642   1.405       .  A
C1642     Br1643   1.923       .  S
C1647      C1648   1.418       .  A
C1647      C1652   1.423       .  A
C1647     Br1654   1.897       .  S
C1648      C1649   1.408       .  A
C1649      C1650   1.418       .  A
C1649     Br1656   1.925       .  S
C1650      C1651   1.417       .  A
C1650     Br1655   1.908       .  S
C1651      C1652   1.408       .  A
C1652     Br1653   1.932       .  S
C1657      C1658   1.412       .  A
C1657      C1662   1.406       .  A
C1657     Br1664   1.919       .  S
C1658      C1659   1.411       .  A
C1659      C1660   1.413       .  A
C1659     Br1666   1.927       .  S
C1660      C1661   1.408       .  A
C1660     Br1665   1.926       .  S
C1661      C1662   1.402       .  A
C1662     Br1663   1.926       .  S
C1667      C1668   1.417       .  A
C1667      C1672   1.424       .  A
C1667     Br1674   1.912       .  S
C1668      C1669   1.417       .  A
C1669      C1670   1.404       .  A
C1669     Br1676   1.924       .  S
C1670      C1671   1.405       .  A
C1670     Br1675   1.922       .  S
C1671      C1672   1.410       .  A
C1672     Br1673   1.926       .  S
C1677      C1678   1.431       .  A
C1677      C1682   1.433       .  A
C1677     Br1684   1.919       .  S
C1678      C1679   1.412       .  A
C1679      C1680   1.419       .  A
C1679     Br1686   1.938       .  S
C1680      C1681   1.434       .  A
C1680     Br1685   1.936       .  S
C1681      C1682   1.418       .  A
C1682     Br1683   1.933       .  S
C1687      C1688   1.403       .  A
C1687      C1692   1.415       .  A
C1687     Br1694   1.938       .  S
C1688      C1689   1.433       .  A
C1689      C1690   1.419       .  A
C1689     Br1696   1.927       .  S
C1690      C1691   1.403       .  A
C1690     Br1695   1.933       .  S
C1691      C1692   1.428       .  A
C1692     Br1693   1.907       .  S
C1697      C1698   1.397       .  A
C1697      C1702   1.395       .  A
C1697     Br1704   1.927       .  S
C1698      C1699   1.403       .  A
C1699      C1700   1.379       .  A
C1699     Br1706   1.931       .  S
C1700      C1701   1.409       .  A
C1700     Br1705   1.935       .  S
C1701      C1702   1.405       .  A
C1702     Br1703   1.923       .  S
C1707      C1708   1.411       .  A
C1707      C1712   1.401       .  A
C1707     Br1714   1.947       .  S
C1708      C1709   1.426       .  A
C1709      C1710   1.422       .  A
C1709     Br1716   1.930       .  S
C1710      C1711   1.409       .  A
C1710     Br1715   1.928       .  S
C1711      C1712   1.429       .  A
C1712     Br1713   1.945       .  S
C1717      C1718   1.435       .  A
C1717      C1722   1.400       .  A
C1717     Br1724   1.947       .  S
C1718      C1719   1.412       .  A
C1719      C1720   1.416       .  A
C1719     Br1726   1.934       .  S
C1720      C1721   1.428       .  A
C1720     Br1725   1.938       .  S
C1721      C1722   1.407       .  A
C1722     Br1723   1.945       .  S
C1727      C1728   1.421       .  A
C1727      C1732   1.420       .  A
C1727     Br1734   1.929       .  S
C1728      C1729   1.412       .  A
C1729      C1730   1.402       .  A
C1729     Br1736   1.927       .  S
C1730      C1731   1.415       .  A
C1730     Br1735   1.940       .  S
C1731      C1732   1.411       .  A
C1732     Br1733   1.928       .  S
C1737      C1738   1.408       .  A
C1737      C1742   1.401       .  A
C1737     Br1744   1.933       .  S
C1738      C1739   1.421       .  A
C1739      C1740   1.417       .  A
C1739     Br1746   1.932       .  S
C1740      C1741   1.410       .  A
C1740     Br1745   1.928       .  S
C1741      C1742   1.428       .  A
C1742     Br1743   1.948       .  S
C1747      C1748   1.409       .  A
C1747      C1752   1.400       .  A
C1747     Br1754   1.924       .  S
C1748      C1749   1.402   1_655  A
C1749      C1750   1.385       .  A
C1749     Br1756   1.900       .  S
C1750      C1751   1.401       .  A
C1750     Br1755   1.935       .  S
C1751      C1752   1.402   1_455  A
C1752     Br1753   1.912       .  S
C1757      C1758   1.413       .  A
C1757      C1762   1.409       .  A
C1757     Br1764   1.932       .  S
C1758      C1759   1.430       .  A
C1759      C1760   1.427       .  A
C1759     Br1766   1.931       .  S
C1760      C1761   1.412       .  A
C1760     Br1765   1.928       .  S
C1761      C1762   1.425       .  A
C1762     Br1763   1.940       .  S
C1767      C1768   1.410       .  A
C1767      C1772   1.400       .  A
C1767     Br1774   1.942       .  S
C1768      C1769   1.410       .  A
C1769      C1770   1.417       .  A
C1769     Br1776   1.930       .  S
C1770      C1771   1.418       .  A
C1770     Br1775   1.929       .  S
C1771      C1772   1.409       .  A
C1772     Br1773   1.903       .  S
C1777      C1778   1.416       .  A
C1777      C1782   1.422       .  A
C1777     Br1784   1.924       .  S
C1778      C1779   1.410       .  A
C1779      C1780   1.404       .  A
C1779     Br1786   1.938       .  S
C1780      C1781   1.420       .  A
C1780     Br1785   1.938       .  S
C1781      C1782   1.418       .  A
C1782     Br1783   1.930       .  S
C1787      C1788   1.430       .  A
C1787      C1792   1.418       .  A
C1787     Br1794   1.935       .  S
C1788      C1789   1.411       .  A
C1789      C1790   1.404       .  A
C1789     Br1796   1.942       .  S
C1790      C1791   1.426       .  A
C1790     Br1795   1.940       .  S
C1791      C1792   1.407       .  A
C1792     Br1793   1.930       .  S
C1797      C1798   1.411       .  A
C1797      C1802   1.413       .  A
C1797     Br1804   1.927   1_554  S
C1798      C1799   1.420       .  A
C1799      C1800   1.403       .  A
C1799     Br1806   1.941       .  S
C1800      C1801   1.408       .  A
C1800     Br1805   1.928       .  S
C1801      C1802   1.417       .  A
C1802     Br1803   1.933       .  S
C1807      C1808   1.396       .  A
C1807      C1812   1.389       .  A
C1807     Br1814   1.934       .  S
C1808      C1809   1.402       .  A
C1809      C1810   1.389   1_556  A
C1809     Br1816   1.904   1_556  S
C1810      C1811   1.405   1_554  A
C1810     Br1815   1.939       .  S
C1811      C1812   1.411       .  A
C1812     Br1813   1.912       .  S
C1817      C1818   1.411       .  A
C1817      C1822   1.403       .  A
C1817     Br1824   1.923       .  S
C1818      C1819   1.425       .  A
C1819      C1820   1.413       .  A
C1819     Br1826   1.913       .  S
C1820      C1821   1.400       .  A
C1820     Br1825   1.934       .  S
C1821      C1822   1.407       .  A
C1822     Br1823   1.924       .  S
C1827      C1828   1.404       .  A
C1827      C1832   1.413       .  A
C1827     Br1834   1.929       .  S
C1828      C1829   1.417       .  A
C1829      C1830   1.412       .  A
C1829     Br1836   1.906       .  S
C1830      C1831   1.405       .  A
C1830     Br1835   1.935       .  S
C1831      C1832   1.427       .  A
C1832     Br1833   1.927       .  S
C1837      C1838   1.432       .  A
C1837      C1842   1.430       .  A
C1837     Br1844   1.933       .  S
C1838      C1839   1.433       .  A
C1839      C1840   1.419       .  A
C1839     Br1846   1.933       .  S
C1840      C1841   1.407       .  A
C1840     Br1845   1.931       .  S
C1841      C1842   1.414       .  A
C1842     Br1843   1.930   1_554  S
C1847      C1848   1.430       .  A
C1847      C1852   1.416       .  A
C1847     Br1854   1.927       .  S
C1848      C1849   1.402       .  A
C1849      C1850   1.412       .  A
C1849     Br1856   1.935       .  S
C1850      C1851   1.425       .  A
C1850     Br1855   1.918       .  S
C1851      C1852   1.401       .  A
C1852     Br1853   1.932       .  S
C1857      C1858   1.411       .  A
C1857      C1862   1.411       .  A
C1857     Br1864   1.928       .  S
C1858      C1859   1.416       .  A
C1859      C1860   1.406       .  A
C1859     Br1866   1.922       .  S
C1860      C1861   1.398       .  A
C1860     Br1865   1.927       .  S
C1861      C1862   1.406       .  A
C1862     Br1863   1.922       .  S
C1867      C1868   1.409       .  A
C1867      C1872   1.417       .  A
C1867     Br1874   1.933   1_545  S
C1868      C1869   1.429       .  A
C1869      C1870   1.413       .  A
C1869     Br1876   1.930       .  S
C1870      C1871   1.414       .  A
C1870     Br1875   1.944       .  S
C1871      C1872   1.432       .  A
C1872     Br1873   1.939       .  S
C1877      C1878   1.402       .  A
C1877      C1882   1.394   1_565  A
C1877     Br1884   1.935       .  S
C1878      C1879   1.402       .  A
C1879      C1880   1.383       .  A
C1879     Br1886   1.939       .  S
C1880      C1881   1.416   1_565  A
C1880     Br1885   1.942       .  S
C1881      C1882   1.411       .  A
C1882     Br1883   1.931       .  S
C1887      C1888   1.409       .  A
C1887      C1892   1.409       .  A
C1887     Br1894   1.942       .  S
C1888      C1889   1.426       .  A
C1889      C1890   1.429       .  A
C1889     Br1896   1.923       .  S
C1890      C1891   1.413       .  A
C1890     Br1895   1.927       .  S
C1891      C1892   1.433       .  A
C1892     Br1893   1.939       .  S
C1897      C1898   1.408       .  A
C1897      C1902   1.425       .  A
C1897     Br1904   1.915   1_455  S
C1898      C1899   1.417       .  A
C1899      C1900   1.402       .  A
C1899     Br1906   1.920       .  S
C1900      C1901   1.405   1_565  A
C1900     Br1905   1.916   1_565  S
C1901      C1902   1.422   1_545  A
C1902     Br1903   1.912   1_465  S
C1907      C1908   1.415       .  A
C1907      C1912   1.424       .  A
C1907     Br1914   1.927       .  S
C1908      C1909   1.431       .  A
C1909      C1910   1.408       .  A
C1909     Br1916   1.939       .  S
C1910      C1911   1.412       .  A
C1910     Br1915   1.940       .  S
C1911      C1912   1.425       .  A
C1912     Br1913   1.932       .  S
C1917      C1918   1.421       .  A
C1917      C1922   1.419       .  A
C1917     Br1924   1.914       .  S
C1918      C1919   1.399       .  A
C1919      C1920   1.420       .  A
C1919     Br1926   1.933       .  S
C1920      C1921   1.442       .  A
C1920     Br1925   1.936       .  S
C1921      C1922   1.410       .  A
C1922     Br1923   1.932       .  S
C1927      C1928   1.426       .  A
C1927      C1932   1.420       .  A
C1927     Br1934   1.934       .  S
C1928      C1929   1.410       .  A
C1929      C1930   1.407       .  A
C1929     Br1936   1.934       .  S
C1930      C1931   1.425       .  A
C1930     Br1935   1.938       .  S
C1931      C1932   1.414       .  A
C1932     Br1933   1.932   1_554  S
C1937      C1938   1.393       .  A
C1937      C1942   1.393       .  A
C1937     Br1944   1.914       .  S
C1938      C1939   1.435       .  A
C1939      C1940   1.424       .  A
C1939     Br1946   1.905   1_655  S
C1940      C1941   1.404       .  A
C1940     Br1945   1.926   1_655  S
C1941      C1942   1.422       .  A
C1942     Br1943   1.927       .  S
C1947      C1948   1.428       .  A
C1947      C1952   1.407       .  A
C1947     Br1954   1.939       .  S
C1948      C1949   1.414       .  A
C1949      C1950   1.423       .  A
C1949     Br1956   1.929       .  S
C1950      C1951   1.426       .  A
C1950     Br1955   1.933       .  S
C1951      C1952   1.410       .  A
C1952     Br1953   1.933       .  S
C1957      C1958   1.401   1_455  A
C1957      C1962   1.391       .  A
C1957     Br1964   1.907       .  S
C1958      C1959   1.410       .  A
C1959      C1960   1.394       .  A
C1959     Br1966   1.938       .  S
C1960      C1961   1.400   1_655  A
C1960     Br1965   1.905       .  S
C1961      C1962   1.406       .  A
C1962     Br1963   1.930       .  S
C1967      C1968   1.416       .  A
C1967      C1972   1.414       .  A
C1967     Br1974   1.931       .  S
C1968      C1969   1.402       .  A
C1969      C1970   1.415       .  A
C1969     Br1976   1.930       .  S
C1970      C1971   1.421       .  A
C1970     Br1975   1.908       .  S
C1971      C1972   1.411       .  A
C1972     Br1973   1.916       .  S
C1977      C1978   1.402       .  A
C1977      C1982   1.421       .  A
C1977     Br1984   1.928       .  S
C1978      C1979   1.417       .  A
C1979      C1980   1.416       .  A
C1979     Br1986   1.912       .  S
C1980      C1981   1.411       .  A
C1980     Br1985   1.926       .  S
C1981      C1982   1.427       .  A
C1982     Br1983   1.916       .  S
C1987      C1988   1.429       .  A
C1987      C1992   1.395       .  A
C1987     Br1994   1.940       .  S
C1988      C1989   1.396       .  A
C1989      C1990   1.393       .  A
C1989     Br1996   1.942       .  S
C1990      C1991   1.440       .  A
C1990     Br1995   1.953       .  S
C1991      C1992   1.398       .  A
C1992     Br1993   1.936       .  S
C1997      C1998   1.410       .  A
C1997      C2002   1.408       .  A
C1997     Br2004   1.919       .  S
C1998      C1999   1.419       .  A
C1999      C2000   1.425       .  A
C1999     Br2006   1.929       .  S
C2000      C2001   1.415       .  A
C2000     Br2005   1.926       .  S
C2001      C2002   1.420       .  A
C2002     Br2003   1.938       .  S
C2007      C2008   1.420       .  A
C2007      C2012   1.417       .  A
C2007     Br2014   1.905       .  S
C2008      C2009   1.400       .  A
C2009      C2010   1.420       .  A
C2009     Br2016   1.929       .  S
C2010      C2011   1.438       .  A
C2010     Br2015   1.935       .  S
C2011      C2012   1.408       .  A
C2012     Br2013   1.935       .  S
C2017      C2018   1.409       .  A
C2017      C2022   1.420       .  A
C2017     Br2024   1.937       .  S
C2018      C2019   1.421       .  A
C2019      C2020   1.428       .  A
C2019     Br2026   1.916       .  S
C2020      C2021   1.422       .  A
C2020     Br2025   1.935       .  S
C2021      C2022   1.435       .  A
C2022     Br2023   1.937       .  S
C2027      C2028   1.418       .  A
C2027      C2032   1.415       .  A
C2027     Br2034   1.932       .  S
C2028      C2029   1.415       .  A
C2029      C2030   1.405       .  A
C2029     Br2036   1.940       .  S
C2030      C2031   1.427       .  A
C2030     Br2035   1.949       .  S
C2031      C2032   1.412       .  A
C2032     Br2033   1.932       .  S
C2037      C2038   1.396       .  A
C2037      C2042   1.392   1_554  A
C2037     Br2044   1.938       .  S
C2038      C2039   1.443   1_554  A
C2039      C2040   1.400       .  A
C2039     Br2046   1.943       .  S
C2040      C2041   1.398       .  A
C2040     Br2045   1.942       .  S
C2041      C2042   1.436       .  A
C2042     Br2043   1.942       .  S
C2047      C2048   1.416       .  A
C2047      C2052   1.417       .  A
C2047     Br2054   1.908       .  S
C2048      C2049   1.409       .  A
C2049      C2050   1.408       .  A
C2049     Br2056   1.924       .  S
C2050      C2051   1.411       .  A
C2050     Br2055   1.925       .  S
C2051      C2052   1.406       .  A
C2052     Br2053   1.930       .  S
C2057      C2058   1.401       .  A
C2057      C2062   1.424       .  A
C2057     Br2064   1.930       .  S
C2058      C2059   1.413       .  A
C2059      C2060   1.420       .  A
C2059     Br2066   1.898       .  S
C2060      C2061   1.411       .  A
C2060     Br2065   1.926       .  S
C2061      C2062   1.438       .  A
C2062     Br2063   1.924       .  S
C2067      C2068   1.405       .  A
C2067      C2072   1.399       .  A
C2067     Br2074   1.932       .  S
C2068      C2069   1.405       .  A
C2069      C2070   1.368       .  A
C2069     Br2076   1.943       .  S
C2070      C2071   1.415       .  A
C2070     Br2075   1.948       .  S
C2071      C2072   1.405       .  A
C2072     Br2073   1.921       .  S
C2077      C2078   1.427       .  A
C2077      C2082   1.424       .  A
C2077     Br2084   1.933       .  S
C2078      C2079   1.412       .  A
C2079      C2080   1.405       .  A
C2079     Br2086   1.942       .  S
C2080      C2081   1.429       .  A
C2080     Br2085   1.942       .  S
C2081      C2082   1.418       .  A
C2082     Br2083   1.933       .  S
C2087      C2088   1.402       .  A
C2087      C2092   1.405   1_654  A
C2087     Br2094   1.935   1_554  S
C2088      C2089   1.444       .  A
C2089      C2090   1.403   1_655  A
C2089     Br2096   1.929       .  S
C2090      C2091   1.387       .  A
C2090     Br2095   1.941       .  S
C2091      C2092   1.427   1_554  A
C2092     Br2093   1.931       .  S
C2097      C2098   1.416       .  A
C2097      C2102   1.422       .  A
C2097     Br2104   1.926       .  S
C2098      C2099   1.406       .  A
C2099      C2100   1.414       .  A
C2099     Br2106   1.923       .  S
C2100      C2101   1.417       .  A
C2100     Br2105   1.918       .  S
C2101      C2102   1.411       .  A
C2102     Br2103   1.925       .  S
C2107      C2108   1.417       .  A
C2107      C2112   1.418       .  A
C2107     Br2114   1.912       .  S
C2108      C2109   1.404       .  A
C2109      C2110   1.421       .  A
C2109     Br2116   1.926       .  S
C2110      C2111   1.427       .  A
C2110     Br2115   1.918       .  S
C2111      C2112   1.411       .  A
C2112     Br2113   1.923       .  S
C2117      C2118   1.423       .  A
C2117      C2122   1.422       .  A
C2117     Br2124   1.895       .  S
C2118      C2119   1.403       .  A
C2119      C2120   1.423       .  A
C2119     Br2126   1.930       .  S
C2120      C2121   1.434       .  A
C2120     Br2125   1.926       .  S
C2121      C2122   1.407       .  A
C2122     Br2123   1.930       .  S
C2127      C2128   1.409       .  A
C2127      C2132   1.418       .  A
C2127     Br2134   1.931   1_545  S
C2128      C2129   1.425       .  A
C2129      C2130   1.404       .  A
C2129     Br2136   1.940       .  S
C2130      C2131   1.409       .  A
C2130     Br2135   1.936       .  S
C2131      C2132   1.431       .  A
C2132     Br2133   1.936       .  S
C2137      C2138   1.443       .  A
C2137      C2142   1.403       .  A
C2137     Br2144   1.936       .  S
C2138      C2139   1.403       .  A
C2139      C2140   1.413       .  A
C2139     Br2146   1.932       .  S
C2140      C2141   1.427       .  A
C2140     Br2145   1.920       .  S
C2141      C2142   1.386       .  A
C2142     Br2143   1.937       .  S
C2147      C2148   1.409       .  A
C2147      C2152   1.409       .  A
C2147     Br2154   1.938       .  S
C2148      C2149   1.414       .  A
C2149      C2150   1.425       .  A
C2149     Br2156   1.931   1_554  S
C2150      C2151   1.424       .  A
C2150     Br2155   1.930       .  S
C2151      C2152   1.423       .  A
C2152     Br2153   1.927       .  S
C2157      C2158   1.401       .  A
C2157      C2162   1.387       .  A
C2157     Br2164   1.943       .  S
C2158      C2159   1.398       .  A
C2159      C2160   1.390   1_556  A
C2159     Br2166   1.911   1_556  S
C2160      C2161   1.409   1_554  A
C2160     Br2165   1.930       .  S
C2161      C2162   1.423       .  A
C2162     Br2163   1.935       .  S
C2167      C2168   1.419       .  A
C2167      C2172   1.419       .  A
C2167     Br2174   1.930       .  S
C2168      C2169   1.408       .  A
C2169      C2170   1.407       .  A
C2169     Br2176   1.927       .  S
C2170      C2171   1.420       .  A
C2170     Br2175   1.934       .  S
C2171      C2172   1.409       .  A
C2172     Br2173   1.921   1_545  S
C2177      C2178   1.435       .  A
C2177      C2182   1.438       .  A
C2177     Br2184   1.932       .  S
C2178      C2179   1.435       .  A
C2179      C2180   1.427       .  A
C2179     Br2186   1.936       .  S
C2180      C2181   1.417       .  A
C2180     Br2185   1.937       .  S
C2181      C2182   1.419       .  A
C2182     Br2183   1.931       .  S
C2187      C2188   1.406       .  A
C2187      C2192   1.418       .  A
C2187     Br2194   1.930       .  S
C2188      C2189   1.408       .  A
C2189      C2190   1.386       .  A
C2189     Br2196   1.931       .  S
C2190      C2191   1.421       .  A
C2190     Br2195   1.927       .  S
C2191      C2192   1.418       .  A
C2192     Br2193   1.911       .  S
C2197      C2198   1.413       .  A
C2197      C2202   1.407       .  A
C2197     Br2204   1.945       .  S
C2198      C2199   1.422       .  A
C2199      C2200   1.422       .  A
C2199     Br2206   1.934       .  S
C2200      C2201   1.417       .  A
C2200     Br2205   1.932       .  S
C2201      C2202   1.439       .  A
C2202     Br2203   1.953       .  S
C2207      C2208   1.410       .  A
C2207      C2212   1.394       .  A
C2207     Br2214   1.905       .  S
C2208      C2209   1.410       .  A
C2209      C2210   1.431       .  A
C2209     Br2216   1.922       .  S
C2210      C2211   1.425       .  A
C2210     Br2215   1.912       .  S
C2211      C2212   1.397       .  A
C2212     Br2213   1.904       .  S
C2217      C2218   1.403       .  A
C2217      C2222   1.418       .  A
C2217     Br2224   1.932       .  S
C2218      C2219   1.425       .  A
C2219      C2220   1.418       .  A
C2219     Br2226   1.928       .  S
C2220      C2221   1.411       .  A
C2220     Br2225   1.936       .  S
C2221      C2222   1.432       .  A
C2222     Br2223   1.931       .  S
C2227      C2228   1.412       .  A
C2227      C2232   1.421       .  A
C2227     Br2234   1.927       .  S
C2228      C2229   1.418       .  A
C2229      C2230   1.401       .  A
C2229     Br2236   1.939       .  S
C2230      C2231   1.404       .  A
C2230     Br2235   1.918       .  S
C2231      C2232   1.422       .  A
C2232     Br2233   1.929       .  S
C2237      C2238   1.432       .  A
C2237      C2242   1.389   1_565  A
C2237     Br2244   1.938       .  S
C2238      C2239   1.400       .  A
C2239      C2240   1.398       .  A
C2239     Br2246   1.936       .  S
C2240      C2241   1.427   1_565  A
C2240     Br2245   1.927   1_565  S
C2241      C2242   1.383       .  A
C2242     Br2243   1.926       .  S
C2247      C2248   1.418       .  A
C2247      C2252   1.418       .  A
C2247     Br2254   1.930       .  S
C2248      C2249   1.414       .  A
C2249      C2250   1.403       .  A
C2249     Br2256   1.925       .  S
C2250      C2251   1.421       .  A
C2250     Br2255   1.947       .  S
C2251      C2252   1.413       .  A
C2252     Br2253   1.929       .  S
C2257      C2258   1.417       .  A
C2257      C2262   1.384       .  A
C2257     Br2264   1.909       .  S
C2258      C2259   1.408       .  A
C2259      C2260   1.391       .  A
C2259     Br2266   1.935       .  S
C2260      C2261   1.397       .  A
C2260     Br2265   1.906       .  S
C2261      C2262   1.395       .  A
C2262     Br2263   1.945       .  S
C2267      C2268   1.412       .  A
C2267      C2272   1.403       .  A
C2267     Br2274   1.910       .  S
C2268      C2269   1.416       .  A
C2269      C2270   1.424       .  A
C2269     Br2276   1.926       .  S
C2270      C2271   1.414       .  A
C2270     Br2275   1.925       .  S
C2271      C2272   1.409       .  A
C2272     Br2273   1.935       .  S
C2277      C2278   1.421       .  A
C2277      C2282   1.423       .  A
C2277     Br2284   1.924       .  S
C2278      C2279   1.422       .  A
C2279      C2280   1.409       .  A
C2279     Br2286   1.937       .  S
C2280      C2281   1.412       .  A
C2280     Br2285   1.937       .  S
C2281      C2282   1.413       .  A
C2282     Br2283   1.924       .  S
C2287      C2288   1.429       .  A
C2287      C2292   1.403   1_556  A
C2287     Br2294   1.936       .  S
C2288      C2289   1.388       .  A
C2289      C2290   1.398       .  A
C2289     Br2296   1.934       .  S
C2290      C2291   1.439   1_556  A
C2290     Br2295   1.940       .  S
C2291      C2292   1.405       .  A
C2292     Br2293   1.938       .  S
C2297      C2298   1.411       .  A
C2297      C2302   1.422       .  A
C2297     Br2304   1.924       .  S
C2298      C2299   1.406       .  A
C2299      C2300   1.398       .  A
C2299     Br2306   1.906       .  S
C2300      C2301   1.405       .  A
C2300     Br2305   1.928       .  S
C2301      C2302   1.416       .  A
C2302     Br2303   1.927       .  S
C2307      C2308   1.411       .  A
C2307      C2312   1.409       .  A
C2307     Br2314   1.943       .  S
C2308      C2309   1.437       .  A
C2309      C2310   1.423       .  A
C2309     Br2316   1.939       .  S
C2310      C2311   1.411       .  A
C2310     Br2315   1.934       .  S
C2311      C2312   1.436       .  A
C2312     Br2313   1.947       .  S
C2317      C2318   1.401       .  A
C2317      C2322   1.424       .  A
C2317     Br2324   1.933       .  S
C2318      C2319   1.414       .  A
C2319      C2320   1.424       .  A
C2319     Br2326   1.910       .  S
C2320      C2321   1.421       .  A
C2320     Br2325   1.934       .  S
C2321      C2322   1.440       .  A
C2322     Br2323   1.927       .  S
C2327      C2328   1.405       .  A
C2327      C2332   1.416       .  A
C2327     Br2334   1.930       .  S
C2328      C2329   1.429       .  A
C2329      C2330   1.424       .  A
C2329     Br2336   1.928       .  S
C2330      C2331   1.406       .  A
C2330     Br2335   1.927       .  S
C2331      C2332   1.420       .  A
C2332     Br2333   1.902       .  S
C2337      C2338   1.409       .  A
C2337      C2342   1.408       .  A
C2337     Br2344   1.931       .  S
C2338      C2339   1.440       .  A
C2339      C2340   1.402       .  A
C2339     Br2346   1.937       .  S
C2340      C2341   1.382       .  A
C2340     Br2345   1.930       .  S
C2341      C2342   1.413       .  A
C2342     Br2343   1.919       .  S
C2347      C2348   1.424       .  A
C2347      C2352   1.409       .  A
C2347     Br2354   1.941       .  S
C2348      C2349   1.412       .  A
C2349      C2350   1.420       .  A
C2349     Br2356   1.930   1_545  S
C2350      C2351   1.426       .  A
C2350     Br2355   1.934       .  S
C2351      C2352   1.414       .  A
C2352     Br2353   1.935       .  S
C2357      C2358   1.397       .  A
C2357      C2362   1.395       .  A
C2357     Br2364   1.934       .  S
C2358      C2359   1.409       .  A
C2359      C2360   1.393   1_565  A
C2359     Br2366   1.918   1_565  S
C2360      C2361   1.411   1_545  A
C2360     Br2365   1.941       .  S
C2361      C2362   1.422       .  A
C2362     Br2363   1.929       .  S
C2367      C2368   1.398       .  A
C2367      C2372   1.407       .  A
C2367     Br2374   1.925       .  S
C2368      C2369   1.414       .  A
C2369      C2370   1.422       .  A
C2369     Br2376   1.928       .  S
C2370      C2371   1.411       .  A
C2370     Br2375   1.924       .  S
C2371      C2372   1.414       .  A
C2372     Br2373   1.905       .  S
C2377      C2378   1.423       .  A
C2377      C2382   1.425       .  A
C2377     Br2384   1.938       .  S
C2378      C2379   1.431       .  A
C2379      C2380   1.418       .  A
C2379     Br2386   1.936       .  S
C2380      C2381   1.411       .  A
C2380     Br2385   1.936       .  S
C2381      C2382   1.419       .  A
C2382     Br2383   1.913       .  S
C2387      C2388   1.434       .  A
C2387      C2392   1.406       .  A
C2387     Br2394   1.926       .  S
C2388      C2389   1.395       .  A
C2389      C2390   1.410       .  A
C2389     Br2396   1.929       .  S
C2390      C2391   1.437       .  A
C2390     Br2395   1.932       .  S
C2391      C2392   1.396       .  A
C2392     Br2393   1.934       .  S
C2397      C2398   1.424       .  A
C2397      C2402   1.424       .  A
C2397     Br2404   1.929       .  S
C2398      C2399   1.410       .  A
C2399      C2400   1.405       .  A
C2399     Br2406   1.920       .  S
C2400      C2401   1.416       .  A
C2400     Br2405   1.939       .  S
C2401      C2402   1.412       .  A
C2402     Br2403   1.926       .  S
C2407      C2408   1.421       .  A
C2407      C2412   1.425       .  A
C2407     Br2414   1.935       .  S
C2408      C2409   1.443       .  A
C2409      C2410   1.426       .  A
C2409     Br2416   1.933       .  S
C2410      C2411   1.404       .  A
C2410     Br2415   1.934       .  S
C2411      C2412   1.414       .  A
C2412     Br2413   1.899       .  S
C2417      C2418   1.422       .  A
C2417      C2422   1.412       .  A
C2417     Br2424   1.937       .  S
C2418      C2419   1.421       .  A
C2419      C2420   1.430       .  A
C2419     Br2426   1.919       .  S
C2420      C2421   1.419       .  A
C2420     Br2425   1.928       .  S
C2421      C2422   1.414       .  A
C2422     Br2423   1.936       .  S
C2427      C2428   1.428       .  A
C2427      C2432   1.423       .  A
C2427     Br2434   1.932       .  S
C2428      C2429   1.411       .  A
C2429      C2430   1.406       .  A
C2429     Br2436   1.932       .  S
C2430      C2431   1.422       .  A
C2430     Br2435   1.939       .  S
C2431      C2432   1.410       .  A
C2432     Br2433   1.928       .  S
C2437      C2438   1.427       .  A
C2437      C2442   1.404   1_655  A
C2437     Br2444   1.922       .  S
C2438      C2439   1.394       .  A
C2439      C2440   1.408   1_655  A
C2439     Br2446   1.929       .  S
C2440      C2441   1.436       .  A
C2440     Br2445   1.933       .  S
C2441      C2442   1.398       .  A
C2442     Br2443   1.934       .  S
C2447      C2448   1.416       .  A
C2447      C2452   1.425       .  A
C2447     Br2454   1.927       .  S
C2448      C2449   1.406       .  A
C2449      C2450   1.403       .  A
C2449     Br2456   1.928       .  S
C2450      C2451   1.410       .  A
C2450     Br2455   1.910       .  S
C2451      C2452   1.414       .  A
C2452     Br2453   1.923       .  S
C2457      C2458   1.435       .  A
C2457      C2462   1.422       .  A
C2457     Br2464   1.935       .  S
C2458      C2459   1.431       .  A
C2459      C2460   1.433       .  A
C2459     Br2466   1.929       .  S
C2460      C2461   1.416       .  A
C2460     Br2465   1.929       .  S
C2461      C2462   1.410       .  A
C2462     Br2463   1.936       .  S
C2467      C2468   1.401       .  A
C2467      C2472   1.419       .  A
C2467     Br2474   1.929       .  S
C2468      C2469   1.415       .  A
C2469      C2470   1.416       .  A
C2469     Br2476   1.919       .  S
C2470      C2471   1.415       .  A
C2470     Br2475   1.928       .  S
C2471      C2472   1.429       .  A
C2472     Br2473   1.921       .  S
C2477      C2478   1.402       .  A
C2477      C2482   1.390       .  A
C2477     Br2484   1.927       .  S
C2478      C2479   1.405       .  A
C2479      C2480   1.391       .  A
C2479     Br2486   1.914       .  S
C2480      C2481   1.406       .  A
C2480     Br2485   1.939       .  S
C2481      C2482   1.410       .  A
C2482     Br2483   1.925       .  S
C2487      C2488   1.416       .  A
C2487      C2492   1.405       .  A
C2487     Br2494   1.938       .  S
C2488      C2489   1.411       .  A
C2489      C2490   1.419       .  A
C2489     Br2496   1.928       .  S
C2490      C2491   1.418       .  A
C2490     Br2495   1.929       .  S
C2491      C2492   1.410       .  A
C2492     Br2493   1.920       .  S
