geometry optimzed in LAMMPS
_audit_creation_date              2020-12-01 
_audit_creation_method            'lammps2cif' 
_symmetry_space_group_name_H-M    'P1' 
_symmetry_Int_Tables_number       1 
_symmetry_cell_setting            triclinic 
loop_ 
_symmetry_equiv_pos_as_xyz 
  x,y,z 
_cell_length_a                    59.88962313 
_cell_length_b                    60.302921046096394 
_cell_length_c                    46.139699251410505 
_cell_angle_alpha                 90.52484559750997 
_cell_angle_beta                  89.1767852430371 
_cell_angle_gamma                 120.23663719655531 
loop_ 
_atom_site_label 
_atom_site_type_symbol 
_atom_site_fract_x 
_atom_site_fract_y 
_atom_site_fract_z 
_atom_site_charge 
Fe1        Fe  0.44851861  0.05632884  0.43810385     1.65800
Fe2        Fe  0.43713837  0.05862497  0.36712931     1.73200
Fe3        Fe  0.41441031  0.08406225  0.41793346     1.54400
O4          O  0.38969402  0.05339942  0.44470554    -0.82500
O5          O  0.44145731  0.09332807  0.35248713    -0.80800
O6          O  0.41798238  0.04594485  0.46685879    -0.85000
O7          O  0.46827957  0.09302441  0.45352343    -0.79900
O8          O  0.38770051  0.06639886  0.38529288    -0.81600
O9          O  0.47705490  0.07609600  0.36925392    -0.84400
C10         C  0.46117664  0.10906540  0.45954775     0.96400
C11         C  0.39507047  0.04129046  0.46314561     1.03800
O12         O  0.43359428  0.06658123  0.40755634    -1.13400
O13         O  0.43393314  0.02313129  0.37635467    -0.75800
O14         O  0.43039849  0.01896131  0.42441723    -0.79300
O15         O  0.43936957  0.10582262  0.45185609    -0.80000
C16         C  0.43056263  0.01025903  0.39937000     0.95300
O17         O  0.48082881  0.06459273  0.41367038    -0.77900
O18         O  0.39769710  0.04014248  0.36178794    -0.83100
C19         C  0.44322688  0.11348756  0.36396250     0.97900
C20         C  0.38238527  0.04845738  0.36722292     1.03800
O21         O  0.43688941  0.11433460  0.39026217    -0.78800
C22         C  0.49020535  0.07335515  0.38876861     1.02100
Fe23       Fe  0.06473901  0.12379346  0.62279635     1.65800
Fe24       Fe  0.05887719  0.10917276  0.55060876     1.73200
Fe25       Fe  0.09102985  0.17232824  0.57209072     1.54400
O26         O  0.07089745  0.18156217  0.60283728    -0.82500
O27         O  0.09343582  0.12666765  0.52859294    -0.80800
O28         O  0.05241847  0.14905404  0.63392045    -0.85000
O29         O  0.10197206  0.15043286  0.63576366    -0.79900
O30         O  0.06298063  0.16856984  0.54248023    -0.81600
O31         O  0.07034343  0.08627170  0.57048566    -0.84400
C32         C  0.12123967  0.17087650  0.62589136     0.96400
C33         C  0.05662777  0.17064336  0.62493549     1.03800
O34         O  0.07169284  0.13515361  0.58191439    -1.13400
O35         O  0.02303668  0.08752508  0.56851858    -0.75800
O36         O  0.02605866  0.09604677  0.61538222    -0.79300
O37         O  0.12040352  0.18038031  0.60163294    -0.80000
C38         C  0.01289652  0.08363482  0.59348487     0.95300
O39         O  0.07638401  0.09672051  0.61711961    -0.77900
O40         O  0.04414129  0.12790277  0.52748316    -0.83100
C41         C  0.11276729  0.14903756  0.52629014     0.97900
C42         C  0.04604568  0.14981147  0.52772809     1.03800
O43         O  0.11431098  0.16821584  0.54001524    -0.78800
C44         C  0.07614156  0.08307354  0.59581885     1.02100
Fe45       Fe  0.05316879  0.44038449  0.55547796     1.65800
Fe46       Fe  0.06108923  0.43403640  0.62747044     1.73200
Fe47       Fe  0.08704179  0.41147036  0.57593512     1.54400
O48         O  0.06101125  0.38810327  0.54389468    -0.82500
O49         O  0.09907782  0.44742335  0.63931349    -0.80800
O50         O  0.03756381  0.40621733  0.53386123    -0.85000
O51         O  0.08692754  0.45671605  0.53149632    -0.79900
O52         O  0.06645638  0.38162700  0.60510813    -0.81600
O53         O  0.07133306  0.47237782  0.62078731    -0.84400
C54         C  0.10805591  0.45670596  0.53145057     0.96400
C55         C  0.04222153  0.38806016  0.53131984     1.03800
O56         O  0.06713353  0.42861047  0.58641651    -1.13400
O57         O  0.02204517  0.42132093  0.62184704    -0.75800
O58         O  0.01823207  0.42729107  0.57539808    -0.79300
O59         O  0.11127450  0.44091884  0.54655978    -0.80000
C60         C  0.00864826  0.42091090  0.60053337     0.95300
O61         O  0.06571368  0.47524821  0.57400208    -0.77900
O62         O  0.05035700  0.39655614  0.63852319    -0.83100
C63         C  0.11694334  0.44367982  0.63001756     0.97900
C64         C  0.05385735  0.37874217  0.62853405     1.03800
O65         O  0.11442804  0.43063220  0.60730014    -0.78800
C66         C  0.07179412  0.48527596  0.59884605     1.02100
Fe67       Fe  0.12258698  0.05534927  0.35836890     1.65800
Fe68       Fe  0.10884734  0.04995906  0.43107916     1.73200
Fe69       Fe  0.17183994  0.08082958  0.40814149     1.54400
O70         O  0.17915272  0.05820854  0.37971251    -0.82500
O71         O  0.12795754  0.08452621  0.45340102    -0.80800
O72         O  0.14941996  0.04532393  0.34548015    -0.85000
O73         O  0.14666559  0.09252871  0.34609082    -0.79900
O74         O  0.16847927  0.05496210  0.44079387    -0.81600
O75         O  0.08703618  0.06321104  0.41256533    -0.84400
C76         C  0.16814424  0.11064867  0.35471761     0.96400
C77         C  0.16946326  0.04661615  0.35599087     1.03800
O78         O  0.13446350  0.06208818  0.39914878    -1.13400
O79         O  0.08605110  0.01464570  0.41220943    -0.75800
O80         O  0.09691540  0.01690946  0.36567812    -0.79300
O81         O  0.17996176  0.10852859  0.37634732    -0.80000
C82         C  0.08355681  0.00435875  0.38745431     0.95300
O83         O  0.09420965  0.06505669  0.36524852    -0.77900
O84         O  0.12682791  0.03398191  0.45338433    -0.83100
C85         C  0.15018298  0.10459356  0.45284212     0.97900
C86         C  0.14945614  0.03744428  0.45505038     1.03800
O87         O  0.16871896  0.10612836  0.43741837    -0.78800
C88         C  0.08263258  0.06757804  0.38716278     1.02100
Fe89       Fe  0.43501389  0.37129270  0.36963245     1.65800
Fe90       Fe  0.44433576  0.38439760  0.44159891     1.73200
Fe91       Fe  0.41365358  0.32288125  0.41863513     1.54400
O92         O  0.38682996  0.31332590  0.38521172    -0.82500
O93         O  0.46451903  0.36840436  0.45818034    -0.80800
O94         O  0.39561501  0.34932676  0.36277943    -0.85000
O95         O  0.44073453  0.34214517  0.35324215    -0.79900
O96         O  0.38726310  0.32566571  0.44668332    -0.81600
O97         O  0.47737241  0.40881676  0.41863084    -0.84400
C98         C  0.44485727  0.32548308  0.36474591     0.96400
C99         C  0.38073648  0.32549751  0.36751675     1.03800
O100        O  0.43088319  0.35956917  0.40998173    -1.13400
O101        O  0.42620578  0.40354648  0.42752597    -0.75800
O102        O  0.43074574  0.40277777  0.37958070    -0.79300
O103        O  0.43885285  0.31873314  0.39105308    -0.80000
C104        C  0.42687879  0.41231706  0.40246699     0.95300
O105        O  0.47476106  0.39421634  0.37363885    -0.77900
O106        O  0.41271198  0.36316850  0.46851182    -0.83100
C107        C  0.45914523  0.34553615  0.46235216     0.97900
C108        C  0.39098751  0.34280716  0.46548396     1.03800
O109        O  0.43864802  0.32638763  0.45254233    -0.78800
C110        C  0.48738109  0.40976844  0.39391607     1.02100
Fe111      Fe  0.37589157  0.43481853  0.63031256     1.65800
Fe112      Fe  0.39060629  0.44060457  0.55802625     1.73200
Fe113      Fe  0.32715529  0.40927526  0.58014538     1.54400
O114        O  0.31841866  0.38025319  0.61019456    -0.82500
O115        O  0.37235282  0.45511932  0.53434617    -0.80800
O116        O  0.34910972  0.39733343  0.64339363    -0.85000
O117        O  0.35105145  0.44822456  0.64098146    -0.79900
O118        O  0.33100946  0.38567162  0.54887209    -0.81600
O119        O  0.41221267  0.47627894  0.57541226    -0.84400
C120        C  0.32921844  0.44381035  0.63206588     0.96400
C121        C  0.32823768  0.37850217  0.63376241     1.03800
O122        O  0.36449630  0.42815494  0.58959247    -1.13400
O123        O  0.41319850  0.42926870  0.57782061    -0.75800
O124        O  0.40222367  0.42223870  0.62425825    -0.79300
O125        O  0.31819310  0.42901387  0.61073509    -0.80000
C126        C  0.41567014  0.42232632  0.60272460     0.95300
O127        O  0.40429437  0.47331238  0.62254843    -0.77900
O128        O  0.37284450  0.40589612  0.53706911    -0.83100
C129        C  0.35066205  0.45386518  0.53470020     0.97900
C130        C  0.35029421  0.38661566  0.53566162     1.03800
O131        O  0.33161982  0.43752077  0.55002065    -0.78800
C132        C  0.41631173  0.48645090  0.60023418     1.02100
Fe133      Fe  0.22990899  0.45246551  0.31548232     1.65800
Fe134      Fe  0.23218030  0.42720275  0.24991440     1.73200
Fe135      Fe  0.25384906  0.99301056  0.24969134     1.54400
O136        O  0.23103510  0.00381075  0.27309970    -0.82500
O137        O  0.26702496  0.44620942  0.22761361    -0.80800
O138        O  0.21221162  0.47410832  0.31618149    -0.85000
O139        O  0.26557325  0.48346015  0.32452823    -0.79900
O140        O  0.22303717  0.47643103  0.22273871    -0.81600
O141        O  0.24943120  0.41469211  0.27909976    -0.84400
C142        C  0.28541779  0.00388226  0.30614729     0.96400
C143        C  0.21760565  0.99630414  0.29617224     1.03800
O144        O  0.23775212  0.45682932  0.27329320    -1.13400
O145        O  0.19648534  0.40390136  0.26864163    -0.75800
O146        O  0.19367520  0.41985178  0.31129026    -0.79300
O147        O  0.28295685  0.00979218  0.28037078    -0.80000
C148        C  0.18446370  0.40234830  0.29211674     0.95300
O149        O  0.24617795  0.43009667  0.32192151    -0.77900
O150        O  0.21391990  0.43579513  0.21808016    -0.83100
C151        C  0.28007816  0.46870178  0.21741142     0.97900
C152        C  0.21174814  0.45469153  0.20990926     1.03800
O153        O  0.27642070  0.48676433  0.22573271    -0.78800
C154        C  0.25166022  0.41606721  0.30646882     1.02100
Fe155      Fe  0.11812240  0.37247815  0.07595647     1.65800
Fe156      Fe  0.10243081  0.38836235  0.01321195     1.73200
Fe157      Fe  0.09275004  0.41114924  0.07687468     1.54400
O158        O  0.06916947  0.38098442  0.10570474    -0.82500
O159        O  0.10632052  0.42434418  0.00755909    -0.80800
O160        O  0.09127071  0.36038501  0.10912434    -0.85000
O161        O  0.14285991  0.40326158  0.09940811    -0.79900
O162        O  0.06084544  0.39883314  0.04828449    -0.81600
O163        O  0.14163128  0.40487352  0.00870055    -0.84400
C164        C  0.14201575  0.42142124  0.11202545     0.96400
C165        C  0.07331485  0.36431991  0.11759119     1.03800
O166        O  0.10448119  0.39081065  0.05569541    -1.13400
O167        O  0.09888340  0.35208149  0.01059005    -0.75800
O168        O  0.09351504  0.33894218  0.05594132    -0.79300
O169        O  0.12377162  0.42605029  0.10697601    -0.80000
C170        C  0.09360120  0.33479627  0.02928442     0.95300
O171        O  0.14762948  0.38404658  0.04485142    -0.77900
O172        O  0.06340684  0.37200842  0.01635761    -0.83100
C173        C  0.11610279  0.44436469  0.02320896     0.97900
C174        C  0.05157732  0.38266362  0.02721002     1.03800
O175        O  0.11591033  0.44280841  0.05070916    -0.78800
C176        C  0.15545774  0.39810964  0.02220916     1.02100
Fe177      Fe  0.03573572  0.26164366  0.30883556     1.65800
Fe178      Fe  0.06033014  0.26667897  0.24064640     1.73200
Fe179      Fe  0.49789585  0.24721918  0.24946378     1.54400
O180        O  0.48144986  0.21458132  0.27663549    -0.82500
O181        O  0.05035131  0.28703981  0.21307865    -0.80800
O182        O  0.00473936  0.22499992  0.31512774    -0.85000
O183        O  0.01337654  0.27840622  0.31517251    -0.79900
O184        O  0.50158202  0.22437048  0.21769499    -0.81600
O185        O  0.08390101  0.30020195  0.26214957    -0.84400
C186        C  0.49525457  0.27796597  0.30273862     0.96400
C187        C  0.48827014  0.20931849  0.30061702     1.03800
O188        O  0.03072342  0.25810835  0.26636192    -1.13400
O189        O  0.07491072  0.24861546  0.26507886    -0.75800
O190        O  0.05942761  0.24609311  0.30963431    -0.79300
O191        O  0.48794587  0.26780428  0.27794348    -0.80000
C192        C  0.07438503  0.24378498  0.29183786     0.95300
O193        O  0.06843066  0.29815739  0.30694476    -0.77900
O194        O  0.04123010  0.23371254  0.21654541    -0.83100
C195        C  0.03182679  0.29130704  0.20947252     0.97900
C196        C  0.01850038  0.22072166  0.20706194     1.03800
O197        O  0.00991549  0.27800309  0.22221181    -0.78800
C198        C  0.08585781  0.30920825  0.28753029     1.02100
Fe199      Fe  0.10441577  0.19938314  0.02142958     1.65800
Fe200      Fe  0.10354967  0.22711986  0.08446269     1.73200
Fe201      Fe  0.08029406  0.16262713  0.08299743     1.54400
O202        O  0.05356422  0.14568570  0.04949747    -0.82500
O203        O  0.12184432  0.21922269  0.11620964    -0.80800
O204        O  0.06611354  0.17367875  0.01264948    -0.85000
O205        O  0.11262150  0.17054107  0.02022890    -0.79900
O206        O  0.05315356  0.16805376  0.10623542    -0.81600
O207        O  0.13922965  0.24852767  0.06440147    -0.84400
C208        C  0.11366183  0.15526232  0.03781217     0.96400
C209        C  0.04962841  0.15277116  0.02495881     1.03800
O210        O  0.09605815  0.19616766  0.06317796    -1.13400
O211        O  0.08514493  0.23761269  0.05512844    -0.75800
O212        O  0.09825470  0.22945751  0.01344005    -0.79300
O213        O  0.10478242  0.15202371  0.06343648    -0.80000
C214        C  0.08937054  0.24104542  0.02821116     0.95300
O215        O  0.14337261  0.22518919  0.02930117    -0.77900
O216        O  0.06982575  0.21031345  0.10780319    -0.83100
C217        C  0.12074020  0.19959447  0.12747308     0.97900
C218        C  0.05256287  0.18785380  0.11478667     1.03800
O219        O  0.10608541  0.17689195  0.11791905    -0.78800
C220        C  0.15302735  0.24451596  0.04628815     1.02100
Fe221      Fe  0.29083733  0.38911822  0.01973277     1.65800
Fe222      Fe  0.26703137  0.38979535  0.08696849     1.73200
Fe223      Fe  0.33195717  0.41418180  0.07769386     1.54400
O224        O  0.34370222  0.39290275  0.05288330    -0.82500
O225        O  0.28533830  0.42470104  0.10902217    -0.80800
O226        O  0.31717320  0.37752130  0.01567715    -0.85000
O227        O  0.31801701  0.42626795  0.00851615    -0.79900
O228        O  0.32072406  0.38621464  0.11082127    -0.81600
O229        O  0.25138715  0.40511478  0.05941457    -0.84400
C230        C  0.33692323  0.44534458  0.02075518     0.96400
C231        C  0.33614459  0.37999187  0.02966951     1.03800
O232        O  0.29669021  0.39772845  0.06155113    -1.13400
O233        O  0.24480611  0.35360434  0.06867563    -0.75800
O234        O  0.26369308  0.35119071  0.02790785    -0.79300
O235        O  0.34458347  0.44351592  0.04603831    -0.80000
C236        C  0.24641003  0.34080219  0.04744892     0.95300
O237        O  0.26237208  0.39844959  0.01546989    -0.77900
O238        O  0.27884730  0.37326360  0.11769130    -0.83100
C239        C  0.30848839  0.43988192  0.11673774     0.97900
C240        C  0.29924429  0.37310253  0.12459552     1.03800
O241        O  0.32732227  0.43819010  0.10656590    -0.78800
C242        C  0.24925386  0.40442627  0.03206306     1.02100
Fe243      Fe  0.21582748  0.29003543  0.26101166     1.65800
Fe244      Fe  0.22561134  0.26665184  0.32348864     1.73200
Fe245      Fe  0.24366549  0.25295154  0.25670039     1.54400
O246        O  0.21206012  0.23618471  0.22762977    -0.82500
O247        O  0.26351330  0.27591733  0.32669120    -0.80800
O248        O  0.19790056  0.26353310  0.22939596    -0.85000
O249        O  0.24755246  0.30911867  0.23506547    -0.79900
O250        O  0.22448090  0.21888093  0.28066270    -0.81600
O251        O  0.23850149  0.30503210  0.33122740    -0.84400
C252        C  0.26423352  0.30506355  0.22299528     0.96400
C253        C  0.19658770  0.24352262  0.21912938     1.03800
O254        O  0.22854875  0.26987307  0.28042313    -1.13400
O255        O  0.18670605  0.25613608  0.32455616    -0.75800
O256        O  0.18129808  0.27191620  0.28352149    -0.79300
O257        O  0.26520392  0.28483662  0.22858358    -0.80000
C258        C  0.17245169  0.25883445  0.30650945     0.95300
O259        O  0.23318355  0.32003961  0.28970824    -0.77900
O260        O  0.21296252  0.22830663  0.32302172    -0.83100
C261        C  0.28056536  0.27564539  0.31025988     0.97900
C262        C  0.21367172  0.21244632  0.30556229     1.03800
O263        O  0.27610769  0.26770462  0.28395764    -0.78800
C264        C  0.24085355  0.32320660  0.31561084     1.02100
Fe265      Fe  0.40274533  0.12853464  0.90872803     1.65800
Fe266      Fe  0.40209317  0.10263461  0.97355504     1.73200
Fe267      Fe  0.42019151  0.08269391  0.91143547     1.54400
O268        O  0.39164601  0.06993955  0.87914487    -0.82500
O269        O  0.43899536  0.11037140  0.97965840    -0.80800
O270        O  0.38190735  0.10105096  0.87833882    -0.85000
O271        O  0.43601960  0.14233187  0.88468744    -0.79900
O272        O  0.39644943  0.04974363  0.93553223    -0.81600
O273        O  0.41468261  0.14107261  0.97953035    -0.84400
C274        C  0.45001241  0.13350004  0.87564605     0.96400
C275        C  0.37941521  0.08022067  0.86851819     1.03800
O276        O  0.40822382  0.10438606  0.93116543    -1.13400
O277        O  0.36461239  0.09573557  0.96997487    -0.75800
O278        O  0.36870162  0.11771272  0.92985514    -0.79300
O279        O  0.44656829  0.11187557  0.88373601    -0.80000
C280        C  0.35611690  0.10571893  0.95225720     0.95300
O281        O  0.42262843  0.15936733  0.93637593    -0.77900
O282        O  0.38833763  0.06380219  0.97681131    -0.83100
C283        C  0.45437672  0.10484694  0.96666010     0.97900
C284        C  0.38745018  0.04601745  0.96124193     1.03800
O285        O  0.44952947  0.09369876  0.94190632    -0.78800
C286        C  0.42190774  0.16056934  0.96374605     1.02100
Fe287      Fe  0.46078180  0.22708767  0.69165354     1.65800
Fe288      Fe  0.44158669  0.21116302  0.76190629     1.73200
Fe289      Fe  0.00315969  0.24702931  0.74307914     1.54400
O290        O  0.01411054  0.22695615  0.71464978    -0.82500
O291        O  0.45725309  0.24208671  0.79042789    -0.80800
O292        O  0.49054239  0.22077458  0.67936974    -0.85000
O293        O  0.48356192  0.26594206  0.68543607    -0.79900
O294        O  0.99831192  0.22043470  0.77555206    -0.81600
O295        O  0.41935173  0.22530961  0.74594197    -0.84400
C296        C  0.00489021  0.28124429  0.69117915     0.96400
C297        C  0.00716679  0.21843689  0.68895378     1.03800
O298        O  0.46935395  0.22917145  0.73314355    -1.13400
O299        O  0.42125867  0.17840062  0.73687020    -0.75800
O300        O  0.43671010  0.18797191  0.69173153    -0.79300
O301        O  0.01475488  0.27665326  0.71292436    -0.80000
C302        C  0.42072745  0.17266453  0.71024543     0.95300
O303        O  0.42877773  0.23168102  0.69870140    -0.77900
O304        O  0.45988824  0.19392916  0.78074166    -0.83100
C305        C  0.47740597  0.26418796  0.79189198     0.97900
C306        C  0.48307951  0.20148444  0.78737674     1.03800
O307        O  0.99442903  0.26869276  0.77237876    -0.78800
C308        C  0.41446557  0.22931670  0.72050484     1.02100
Fe309      Fe  0.39994647  0.28868122  0.98481283     1.65800
Fe310      Fe  0.39079686  0.25970526  0.91902657     1.73200
Fe311      Fe  0.41544897  0.32446595  0.92174259     1.54400
O312        O  0.39304591  0.33462694  0.94711888    -0.82500
O313        O  0.42252876  0.27598197  0.89116722    -0.80800
O314        O  0.38914596  0.31565136  0.98956770    -0.85000
O315        O  0.43818825  0.31606280  0.98810458    -0.79900
O316        O  0.38608108  0.31042410  0.89054118    -0.81600
O317        O  0.41040871  0.24700508  0.94372431    -0.84400
C318        C  0.45268071  0.33676433  0.97449768     0.96400
C319        C  0.38591636  0.33060521  0.97353125     1.03800
O320        O  0.40218566  0.29106774  0.94176643    -1.13400
O321        O  0.35731029  0.24003106  0.94382290    -0.75800
O322        O  0.36109971  0.26149792  0.98485667    -0.79300
O323        O  0.44611403  0.34261669  0.95081321    -0.80000
C324        C  0.34780544  0.24369833  0.96702781     0.95300
O325        O  0.41010303  0.26073755  0.98843637    -0.77900
O326        O  0.36979900  0.26816941  0.89096420    -0.83100
C327        C  0.43900271  0.29846336  0.88271359     0.97900
C328        C  0.37036725  0.28799813  0.88109740     1.03800
O329        O  0.43955562  0.31848397  0.89289888    -0.78800
C330        C  0.41424008  0.24712596  0.97062104     1.02100
Fe331      Fe  0.21141600  0.10171627  0.97915589     1.65800
Fe332      Fe  0.23156116  0.11876450  0.90920883     1.73200
Fe333      Fe  0.16744487  0.08074923  0.92313430     1.54400
O334        O  0.15758993  0.05026859  0.95147831    -0.82500
O335        O  0.21397237  0.13643207  0.88963975    -0.80800
O336        O  0.18925349  0.06249814  0.98364572    -0.85000
O337        O  0.18099931  0.10634130  0.99140062    -0.79900
O338        O  0.17650705  0.06059638  0.89205999    -0.81600
O339        O  0.24997830  0.15022572  0.93498586    -0.84400
C340        C  0.16238916  0.10658632  0.97904016     0.96400
C341        C  0.16807937  0.04568986  0.97265273     1.03800
O342        O  0.20343617  0.10030175  0.93726642    -1.13400
O343        O  0.25341135  0.10471846  0.92579199    -0.75800
O344        O  0.24378400  0.09833442  0.97296866    -0.79300
O345        O  0.15548377  0.09870659  0.95320182    -0.80000
C346        C  0.25799667  0.10062980  0.95128368     0.95300
O347        O  0.23489272  0.14132887  0.98000463    -0.77900
O348        O  0.21725529  0.08890026  0.88000903    -0.83100
C349        C  0.19094267  0.12972551  0.88330748     0.97900
C350        C  0.19703255  0.06713309  0.87722851     1.03800
O351        O  0.17182275  0.10878931  0.89263037    -0.78800
C352        C  0.24988396  0.15696349  0.96095505     1.02100
Fe353      Fe  0.26966820  0.04270676  0.67910688     1.65800
Fe354      Fe  0.27488416  0.06997552  0.74517006     1.73200
Fe355      Fe  0.25521277  0.50703157  0.73920902     1.54400
O356        O  0.22090012  0.48958258  0.71492401    -0.82500
O357        O  0.29170833  0.06016718  0.77787528    -0.80800
O358        O  0.23453371  0.00926649  0.67462951    -0.85000
O359        O  0.29007998  0.02385475  0.67670768    -0.79900
O360        O  0.23607504  0.51500713  0.77319795    -0.81600
O361        O  0.31053612  0.08950097  0.72560322    -0.84400
C362        C  0.28493381  0.50153852  0.68573794     0.96400
C363        C  0.21635435  0.49323743  0.68883099     1.03800
O364        O  0.26633860  0.03985616  0.72164674    -1.13400
O365        O  0.25979653  0.08454105  0.71645257    -0.75800
O366        O  0.25011395  0.06257946  0.67514546    -0.79300
O367        O  0.27242014  0.49364029  0.70949546    -0.80000
C368        C  0.25010501  0.07956628  0.69137536     0.95300
O369        O  0.30526749  0.07625406  0.67956524    -0.77900
O370        O  0.23968148  0.05233896  0.76644437    -0.83100
C371        C  0.30004512  0.04462326  0.77991296     0.97900
C372        C  0.23069579  0.03217080  0.78160654     1.03800
O373        O  0.28952036  0.52274024  0.76359096    -0.78800
C374        C  0.31908155  0.09047868  0.70008880     1.02100
Fe375      Fe  0.26839363  0.20180024  0.75712462     1.65800
Fe376      Fe  0.26861249  0.22502853  0.69005719     1.73200
Fe377      Fe  0.24907770  0.24549040  0.75035267     1.54400
O378        O  0.22759946  0.21943797  0.78441360    -0.82500
O379        O  0.28687451  0.26446341  0.68728870    -0.80800
O380        O  0.23347376  0.18627318  0.77858403    -0.85000
O381        O  0.28698544  0.23061538  0.78771801    -0.79900
O382        O  0.21639704  0.22751570  0.72327409    -0.81600
O383        O  0.30487370  0.22840011  0.69379125    -0.84400
C384        C  0.29329000  0.25405276  0.79112163     0.96400
C385        C  0.22242006  0.19685572  0.79123270     1.03800
O386        O  0.26209298  0.22414992  0.73234050    -1.13400
O387        O  0.25176834  0.18558577  0.68573948    -0.75800
O388        O  0.25197134  0.17082173  0.72960707    -0.79300
O389        O  0.28191225  0.26398977  0.77751484    -0.80000
C390        C  0.24784163  0.16748278  0.70264636     0.95300
O391        O  0.30346991  0.21339397  0.73810259    -0.77900
O392        O  0.23277040  0.22096123  0.68193640    -0.83100
C393        C  0.28188308  0.28088235  0.69805198     0.97900
C394        C  0.21424709  0.22024401  0.69666723     1.03800
O395        O  0.26749502  0.27596426  0.72047326    -0.78800
C396        C  0.31479491  0.22207784  0.71396894     1.02100
C397        C  0.25292274  0.11527513  0.66244899    -0.02700
C398        C  0.23883457  0.09497769  0.68180294     0.07000
C399        C  0.22098474  0.09605191  0.70069937    -0.02800
C400        C  0.22219922  0.11949248  0.70611931    -0.02800
C401        C  0.24012043  0.14169794  0.69070432     0.07100
C402        C  0.25420269  0.13903832  0.66721371    -0.03000
Br403      Br  0.27870844  0.16832518  0.64474511    -0.01500
Br404      Br  0.27130796  0.11045582  0.63074570    -0.01600
Br405      Br  0.20159840  0.12104817  0.73739008    -0.01600
Br406      Br  0.19700772  0.06553729  0.72135348    -0.01600
C407        C  0.19953669  0.17339664  0.86793079    -0.02700
C408        C  0.18755407  0.14676211  0.86252245     0.07000
C409        C  0.17849330  0.13810240  0.83436742    -0.02800
C410        C  0.18573353  0.15590194  0.81147010    -0.02800
C411        C  0.20429463  0.18200641  0.81573282     0.07100
C412        C  0.20939535  0.19109504  0.84460492    -0.03000
Br413      Br  0.23087980  0.22718107  0.85234323    -0.01500
Br414      Br  0.19922405  0.18478677  0.90694571    -0.01600
Br415      Br  0.16896633  0.14520247  0.77483715    -0.01600
Br416      Br  0.15739135  0.10203476  0.82675820    -0.01600
C417        C  0.19252126  0.03113995  0.80746496    -0.02700
C418        C  0.21615382  0.03125350  0.80861138     0.07000
C419        C  0.22880275  0.03629510  0.83545552    -0.02800
C420        C  0.22015070  0.04485421  0.85927052    -0.02800
C421        C  0.19917407  0.04914489  0.85643174     0.07100
C422        C  0.18404826  0.04013175  0.83128202    -0.03000
Br423      Br  0.15237724  0.04081993  0.82906099    -0.01500
Br424      Br  0.17146763  0.01795561  0.77368783    -0.01600
Br425      Br  0.23741161  0.05114215  0.89593070    -0.01600
Br426      Br  0.25937027  0.03366996  0.83928278    -0.01600
C427        C  0.28380153  0.18959365  0.99473505     0.02700
C428        C  0.26980161  0.18373928  0.96848139     0.07000
C429        C  0.27905996  0.20252337  0.94633935    -0.02800
C430        C  0.30355084  0.22426074  0.94835150    -0.02800
C431        C  0.31960756  0.22711721  0.97156769     0.07100
C432        C  0.30870188  0.21165417  0.99631444    -0.03000
Br433      Br  0.32751612  0.22061854  0.03204254    -0.01500
Br434      Br  0.27088393  0.16658215  0.02746340    -0.01600
Br435      Br  0.31527902  0.25031294  0.91895284    -0.01600
Br436      Br  0.26033932  0.19790306  0.91103698    -0.01600
C437        C  0.35303665  0.26932516  0.83245191    -0.02700
C438        C  0.35278580  0.28396456  0.85632245     0.07000
C439        C  0.33496751  0.29298444  0.85627963    -0.02800
C440        C  0.31571387  0.28463580  0.83438502    -0.02800
C441        C  0.31580616  0.26927958  0.81103954     0.07100
C442        C  0.33665356  0.26468242  0.80904852    -0.03000
Br443      Br  0.34535810  0.25512621  0.77285420    -0.01500
Br444      Br  0.37473576  0.25394212  0.83143169    -0.01600
Br445      Br  0.28936554  0.29391747  0.83664752    -0.01600
Br446      Br  0.33566425  0.31506649  0.88711596    -0.01600
C447        C  0.36499280  0.10430310  0.70826599    -0.02700
C448        C  0.34661139  0.10867567  0.69490913     0.07000
C449        C  0.35453573  0.13213758  0.68106484    -0.02800
C450        C  0.38059767  0.15153847  0.68158891    -0.02800
C451        C  0.39796856  0.14892680  0.69975056     0.07100
C452        C  0.39022272  0.12488285  0.71237001    -0.03000
Br453      Br  0.41319667  0.12022190  0.73658952    -0.01500
Br454      Br  0.35494863  0.07038156  0.72226018    -0.01600
Br455      Br  0.39113887  0.18278596  0.66028121    -0.01600
Br456      Br  0.32935395  0.13943431  0.66558639    -0.01600
C457        C  0.38720497  0.24799445  0.70339978    -0.02700
C458        C  0.38922353  0.22784016  0.71604826     0.07000
C459        C  0.36642566  0.20507003  0.72432770    -0.02800
C460        C  0.34212493  0.20245301  0.71991853    -0.02800
C461        C  0.34012640  0.22346719  0.71009834     0.07100
C462        C  0.36273590  0.24616589  0.70129806    -0.03000
Br463      Br  0.36053772  0.27546593  0.68899276    -0.01500
Br464      Br  0.41800144  0.27870291  0.69095215    -0.01600
Br465      Br  0.31127803  0.16955791  0.72737032    -0.01600
Br466      Br  0.36775562  0.17707939  0.74266888    -0.01600
C467        C  0.44956103  0.30100608  0.82961838    -0.02700
C468        C  0.45670611  0.30036574  0.85842777     0.07000
C469        C  0.47734047  0.29594279  0.86312904    -0.02800
C470        C  0.48738181  0.28779617  0.84004392    -0.02800
C471        C  0.47595747  0.28281008  0.81247914     0.07100
C472        C  0.45857922  0.29158044  0.80683998    -0.03000
Br473      Br  0.44705658  0.29040819  0.76783415    -0.01500
Br474      Br  0.42756771  0.31492202  0.82161466    -0.01600
Br475      Br  0.51698930  0.28418545  0.84591030    -0.01600
Br476      Br  0.49223152  0.30192689  0.90091906    -0.01600
C477        C  0.30888786  0.08283552  0.96803720    -0.02700
C478        C  0.33122812  0.10492371  0.95731996     0.07000
C479        C  0.32945251  0.12657968  0.94902648    -0.02800
C480        C  0.30544797  0.12506562  0.94855634    -0.02800
C481        C  0.28284984  0.10200447  0.95586041     0.07100
C482        C  0.28458296  0.08125762  0.96684158    -0.03000
Br483      Br  0.25358192  0.05039199  0.97873739    -0.01500
Br484      Br  0.31090768  0.05447423  0.98372466    -0.01600
Br485      Br  0.30394328  0.15527179  0.93817633    -0.01600
Br486      Br  0.35963275  0.15912383  0.93830398    -0.01600
C487        C  0.34266356  0.04280430  0.84098046    -0.02700
C488        C  0.36194149  0.06900822  0.84295295     0.07000
C489        C  0.36256054  0.08613047  0.82185570    -0.02800
C490        C  0.34232034  0.07825882  0.80203094    -0.02800
C491        C  0.32231913  0.05210580  0.80023152     0.07100
C492        C  0.32333568  0.03427234  0.81929729    -0.03000
Br493      Br  0.29695575  0.99851237  0.81796799    -0.01500
Br494      Br  0.34166863  0.01882138  0.86900399    -0.01600
Br495      Br  0.34243738  0.10490979  0.77899378    -0.01600
Br496      Br  0.39171996  0.12098665  0.81958091    -0.01600
C497        C  0.40305348  0.20609226  0.99463860    -0.02700
C498        C  0.42178651  0.22888323  0.98120812     0.07000
C499        C  0.44502707  0.23091657  0.97151634    -0.02800
C500        C  0.44690506  0.20867644  0.96861366    -0.02800
C501        C  0.42599729  0.18471983  0.97721741     0.07100
C502        C  0.40553265  0.18413602  0.99354824    -0.03000
Br503      Br  0.37891116  0.15280824  0.01130228    -0.01500
Br504      Br  0.37243108  0.20392484  0.01119379    -0.01600
Br505      Br  0.47778389  0.21103437  0.95280851    -0.01600
Br506      Br  0.47388609  0.26424376  0.96280290    -0.01600
C507        C  0.47550265  0.15834215  0.80146994    -0.02700
C508        C  0.48723598  0.18475100  0.80755679     0.07000
C509        C  0.49600202  0.19304606  0.83587099    -0.02800
C510        C  0.48726692  0.17506785  0.85867512    -0.02800
C511        C  0.46958914  0.14896819  0.85315482     0.07100
C512        C  0.46581330  0.14028810  0.82420735    -0.03000
Br513      Br  0.44527248  0.10419605  0.81564512    -0.01500
Br514      Br  0.47435677  0.14771597  0.76199836    -0.01600
Br515      Br  0.49873421  0.18583816  0.89757775    -0.01600
Br516      Br  0.51940972  0.22865524  0.84337550    -0.01600
C517        C  0.39130987  0.01323205  0.99057764    -0.02700
C518        C  0.37586743  0.02012347  0.97451284     0.07000
C519        C  0.34899739  0.00383747  0.97464951    -0.02800
C520        C  0.33551747  0.47644490  0.98439593    -0.02800
C521        C  0.34980941  0.47066150  0.00455677     0.07100
C522        C  0.37630074  0.48929317  0.00854195    -0.03000
Br523      Br  0.39771052  0.48296922  0.03415549    -0.01500
Br524      Br  0.42832144  0.03570808  0.99027211    -0.01600
Br525      Br  0.29880924  0.45381142  0.97866739    -0.01600
Br526      Br  0.32819243  0.01224643  0.95070822    -0.01600
C527        C  0.33534601  0.34069318  0.01114516    -0.02700
C528        C  0.34966183  0.36716541  0.01765368     0.07000
C529        C  0.37596084  0.38162134  0.00949525    -0.02800
C530        C  0.38774226  0.36975593  0.99437204    -0.02800
C531        C  0.37315982  0.34358290  0.98694759     0.07100
C532        C  0.34707236  0.32896650  0.99578929    -0.03000
Br533      Br  0.32729514  0.29279111  0.98680344    -0.01500
Br534      Br  0.29979780  0.32017626  0.02406952    -0.01600
Br535      Br  0.42414387  0.38895409  0.98497625    -0.01600
Br536      Br  0.39559119  0.41786069  0.01786185    -0.01600
C537        C  0.29046812  0.31858899  0.17489276    -0.02700
C538        C  0.28142603  0.32481023  0.20064634     0.07000
C539        C  0.28416210  0.34955881  0.20239713    -0.02800
C540        C  0.28992920  0.36492497  0.17762043    -0.02800
C541        C  0.29719203  0.35812441  0.15130675     0.07100
C542        C  0.29870598  0.33544675  0.15052101    -0.03000
Br543      Br  0.30942830  0.32625092  0.11504775    -0.01500
Br544      Br  0.29102990  0.28696091  0.17217235    -0.01600
Br545      Br  0.28471535  0.39396074  0.17956050    -0.01600
Br546      Br  0.27986141  0.36316946  0.23879103    -0.01600
C547        C  0.00100082  0.12552951  0.02601170    -0.02700
C548        C  0.02449554  0.13637979  0.01015426     0.07000
C549        C  0.02374963  0.13283177  0.97976386    -0.02800
C550        C  0.50270014  0.12262802  0.96584134    -0.02800
C551        C  0.47911366  0.11251462  0.98146695     0.07100
C552        C  0.47952992  0.11281263  0.01221849    -0.03000
Br553      Br  0.44796932  0.09415184  0.03487402    -0.01500
Br554      Br  0.00087708  0.12772666  0.06794758    -0.01600
Br555      Br  0.50351627  0.12230003  0.92390911    -0.01600
Br556      Br  0.05550481  0.14398043  0.95799430    -0.01600
C557        C  0.15280671  0.15561432  0.02008140    -0.02700
C558        C  0.12635743  0.14140192  0.02718135     0.07000
C559        C  0.11154466  0.11541159  0.01901479    -0.02800
C560        C  0.12330087  0.10361118  0.00366480    -0.02800
C561        C  0.14956977  0.11817639  0.99547558     0.07100
C562        C  0.16433683  0.14413458  0.00407465    -0.03000
Br563      Br  0.20010357  0.16482935  0.99255190    -0.01500
Br564      Br  0.17308017  0.19131040  0.03136090    -0.01600
Br565      Br  0.10368902  0.06753534  0.99454925    -0.01600
Br566      Br  0.07484083  0.09675767  0.02681282    -0.01600
C567        C  0.19388148  0.27503303  0.07167665    -0.02700
C568        C  0.18111743  0.26417886  0.04535690     0.07000
C569        C  0.19423087  0.27524497  0.01904773    -0.02800
C570        C  0.21691491  0.29974238  0.01922437    -0.02800
C571        C  0.22692464  0.31276821  0.04590804     0.07100
C572        C  0.21678118  0.29894544  0.07195256    -0.03000
Br573      Br  0.23451812  0.31207788  0.10831899    -0.01500
Br574      Br  0.18036852  0.25710512  0.10778715    -0.01600
Br575      Br  0.23306699  0.31511780  0.98262659    -0.01600
Br576      Br  0.18075201  0.25766624  0.98268773    -0.01600
C577        C  0.15733081  0.19989126  0.15489562    -0.02700
C578        C  0.13663692  0.20468829  0.15381835     0.07000
C579        C  0.13431526  0.21997562  0.17537710    -0.02800
C580        C  0.15423083  0.23353824  0.19528813    -0.02800
C581        C  0.17549467  0.22892848  0.19708590     0.07100
C582        C  0.17617941  0.21113760  0.17700570    -0.03000
Br583      Br  0.20386950  0.20355297  0.17725410    -0.01500
Br584      Br  0.16089058  0.17964555  0.12451788    -0.01600
Br585      Br  0.15145064  0.25969916  0.21751354    -0.01600
Br586      Br  0.10352397  0.22303363  0.17667408    -0.01600
C587        C  0.12808107  0.22881455  0.28916972    -0.02700
C588        C  0.14406170  0.24570923  0.31085226     0.07000
C589        C  0.13301474  0.25393289  0.33232376    -0.02800
C590        C  0.10833892  0.25083554  0.32814050    -0.02800
C591        C  0.09421362  0.23816085  0.30285917     0.07100
C592        C  0.10321576  0.22506991  0.28506147    -0.03000
Br593      Br  0.08232068  0.20312543  0.25406013    -0.01500
Br594      Br  0.14047274  0.21090833  0.26508593    -0.01600
Br595      Br  0.09660305  0.26772473  0.35502919    -0.01600
Br596      Br  0.15178337  0.26979777  0.36698405    -0.01600
C597        C  0.02132562  0.20145916  0.13085361    -0.02700
C598        C  0.03241156  0.18594134  0.13541948     0.07000
C599        C  0.02989368  0.17498654  0.16304111    -0.02800
C600        C  0.02072425  0.18329975  0.18667577    -0.02800
C601        C  0.01457659  0.20276709  0.18288273     0.07100
C602        C  0.01245291  0.20987594  0.15456333    -0.03000
Br603      Br  0.50406691  0.23667041  0.14854391    -0.01500
Br604      Br  0.02057920  0.21315159  0.09236217    -0.01600
Br605      Br  0.01732724  0.16887499  0.22454048    -0.01600
Br606      Br  0.04213274  0.15138232  0.16956169    -0.01600
C607        C  0.00122531  0.36518892  0.96869566    -0.02700
C608        C  0.47849979  0.35424557  0.98703428     0.07000
C609        C  0.48105021  0.35835307  0.01740075    -0.02800
C610        C  0.00398597  0.36839977  0.02977079    -0.02800
C611        C  0.02671350  0.37625693  0.01329439     0.07100
C612        C  0.02530931  0.37581195  0.98258237    -0.03000
Br613      Br  0.05645019  0.38962313  0.95902874    -0.01500
Br614      Br  0.00013414  0.36496353  0.92687546    -0.01600
Br615      Br  0.00554506  0.37141091  0.07142638    -0.01600
Br616      Br  0.45082438  0.34810899  0.04167395    -0.01600
C617        C  0.15556805  0.99943336  0.97034764    -0.02700
C618        C  0.15511382  0.01960417  0.98528407     0.07000
C619        C  0.14302345  0.01503185  0.01275897    -0.02800
C620        C  0.12623578  0.49064657  0.02178718    -0.02800
C621        C  0.12778920  0.47009690  0.00865959     0.07100
C622        C  0.14046820  0.47435333  0.98117586    -0.03000
Br623      Br  0.14594697  0.44848720  0.96287959    -0.01500
Br624      Br  0.17119076  0.00549303  0.93216334    -0.01600
Br625      Br  0.10646199  0.48556538  0.05707569    -0.01600
Br626      Br  0.14414658  0.04312969  0.03433891    -0.01600
C627        C  0.06673467  0.28768946  0.01882601    -0.02700
C628        C  0.09108556  0.31025579  0.02069850     0.07000
C629        C  0.11369719  0.30865005  0.01938497    -0.02800
C630        C  0.11218044  0.28542125  0.01290064    -0.02800
C631        C  0.08835973  0.26265107  0.01542562     0.07100
C632        C  0.06542491  0.26369895  0.01673807    -0.03000
Br633      Br  0.03273927  0.23220645  0.01600718    -0.01500
Br634      Br  0.03566683  0.28935227  0.02415644    -0.01600
Br635      Br  0.14353607  0.28501983  0.00503245    -0.01600
Br636      Br  0.14559335  0.33493890  0.03583119    -0.01600
C637        C  0.07237365  0.35387340  0.16975903    -0.02700
C638        C  0.05859930  0.34967474  0.14384308     0.07000
C639        C  0.03302750  0.32874306  0.14240166    -0.02800
C640        C  0.02231498  0.31101552  0.16573405    -0.02800
C641        C  0.03766473  0.31344015  0.18993096     0.07100
C642        C  0.06186333  0.33621973  0.19270184    -0.03000
Br643      Br  0.58244687  0.34732284  0.22803191    -0.01500
Br644      Br  0.10690751  0.38293307  0.17312453    -0.01600
Br645      Br  0.98697922  0.28353152  0.16418555    -0.01600
Br646      Br  0.01379669  0.32281596  0.10735764    -0.01600
C647        C  0.18704738  0.38985912  0.99631963    -0.02700
C648        C  0.18193406  0.40679966  0.01214508     0.07000
C649        C  0.20226987  0.42824060  0.02553972    -0.02800
C650        C  0.22594395  0.42916306  0.02941417    -0.02800
C651        C  0.22916981  0.40878689  0.01938593     0.07100
C652        C  0.21057255  0.39042380  0.00030773    -0.03000
Br653      Br  0.21540984  0.36426682  0.98204730    -0.01500
Br654      Br  0.16136837  0.36573404  0.96999784    -0.01600
Br655      Br  0.25353901  0.45788261  0.04879940    -0.01600
Br656      Br  0.19680333  0.45543399  0.03935064    -0.01600
C657        C  0.27460263  0.36921881  0.31636271    -0.02700
C658        C  0.25142442  0.34913586  0.32780973     0.07000
C659        C  0.23445739  0.35498518  0.34259586    -0.02800
C660        C  0.23744198  0.37946489  0.34002117    -0.02800
C661        C  0.25677626  0.39748730  0.32120573     0.07100
C662        C  0.27690367  0.39335437  0.31190511    -0.03000
Br663      Br  0.30707179  0.42042517  0.29328534    -0.01500
Br664      Br  0.30265873  0.36317219  0.30772430    -0.01600
Br665      Br  0.21279750  0.38651097  0.35924918    -0.01600
Br666      Br  0.20554203  0.32861080  0.36342905    -0.01600
C667        C  0.32323761  0.45666482  0.16716556    -0.02700
C668        C  0.31290576  0.45850421  0.14060296     0.07000
C669        C  0.30136351  0.47377012  0.13968123    -0.02800
C670        C  0.29394021  0.48108559  0.16555651    -0.02800
C671        C  0.29793714  0.47269955  0.19250807     0.07100
C672        C  0.31496599  0.46292623  0.19323406    -0.03000
Br673      Br  0.32658987  0.45778726  0.22975609    -0.01500
Br674      Br  0.34764356  0.44464505  0.16805918    -0.01600
Br675      Br  0.27626064  0.50033689  0.16340841    -0.01600
Br676      Br  0.29754465  0.48577939  0.10286154    -0.01600
C677        C  0.15784682  0.35479583  0.28826949    -0.02700
C678        C  0.15950050  0.37807328  0.29706684     0.07000
C679        C  0.13723451  0.37731162  0.30917216    -0.02800
C680        C  0.11281192  0.35458779  0.30721843    -0.02800
C681        C  0.11092948  0.33236165  0.29448948     0.07100
C682        C  0.13380839  0.33218153  0.28708645    -0.03000
Br683      Br  0.13274545  0.30068133  0.27602984    -0.01500
Br684      Br  0.18873105  0.35312317  0.27934592    -0.01600
Br685      Br  0.08205607  0.35428299  0.32083623    -0.01600
Br686      Br  0.13983341  0.40656694  0.32927150    -0.01600
C687        C  0.17561144  0.45574708  0.18287917    -0.02700
C688        C  0.19622590  0.45074270  0.18334187     0.07000
C689        C  0.20108964  0.43981555  0.15864000    -0.02800
C690        C  0.18517061  0.43320071  0.13421744    -0.02800
C691        C  0.16263366  0.43567085  0.13453297     0.07100
C692        C  0.15866427  0.44799208  0.15888760    -0.03000
Br693      Br  0.12909851  0.45269520  0.16132748    -0.01500
Br694      Br  0.17806613  0.97986364  0.20240494    -0.01600
Br695      Br  0.19527794  0.42019158  0.10094352    -0.01600
Br696      Br  0.22932616  0.43268008  0.15825644    -0.01600
C697        C  0.30055940  0.32944129  0.63634053    -0.02700
C698        C  0.31499162  0.35350862  0.65067170     0.07000
C699        C  0.31654278  0.35332202  0.68146489    -0.02800
C700        C  0.30582015  0.32986840  0.69704504    -0.02800
C701        C  0.29242431  0.30608359  0.68246196     0.07100
C702        C  0.28919488  0.30617627  0.65214400    -0.03000
Br703      Br  0.26773138  0.27411436  0.63201518    -0.01500
Br704      Br  0.29609214  0.32722200  0.59476463    -0.01600
Br705      Br  0.31037281  0.33041581  0.73844698    -0.01600
Br706      Br  0.33155381  0.38499400  0.70331312    -0.01600
C707        C  0.32056636  0.46411192  0.67624413    -0.02700
C708        C  0.31663841  0.45726144  0.64641235     0.07000
C709        C  0.30201040  0.46506977  0.62985372    -0.02800
C710        C  0.29377720  0.48125224  0.64213896    -0.02800
C711        C  0.29677913  0.48722019  0.67208310     0.07100
C712        C  0.31071747  0.47895369  0.68887869    -0.03000
Br713      Br  0.31188702  0.98203756  0.73098002    -0.01500
Br714      Br  0.33783212  0.45191554  0.70104105    -0.01600
Br715      Br  0.28015910  0.49649252  0.61651414    -0.01600
Br716      Br  0.29220105  0.45374963  0.59015113    -0.01600
C717        C  0.30925344  0.27851038  0.35127327    -0.02700
C718        C  0.30680078  0.28585893  0.32297627     0.07000
C719        C  0.32900345  0.30527989  0.30875125    -0.02800
C720        C  0.35319965  0.31753431  0.32277861    -0.02800
C721        C  0.35541558  0.31132385  0.35185848     0.07100
C722        C  0.33313363  0.29137767  0.36580427    -0.03000
Br723      Br  0.33418865  0.28223758  0.40567273    -0.01500
Br724      Br  0.27976973  0.25029301  0.37038535    -0.01600
Br725      Br  0.38327231  0.34216607  0.30105263    -0.01600
Br726      Br  0.32604999  0.31657055  0.27065237    -0.01600
C727        C  0.44935651  0.28721569  0.35202374    -0.02700
C728        C  0.45680927  0.31318394  0.34695109     0.07000
C729        C  0.47615589  0.32710199  0.32550907    -0.02800
C730        C  0.48815602  0.31530122  0.31035047    -0.02800
C731        C  0.48167867  0.29001767  0.31702638     0.07100
C732        C  0.46249161  0.27620933  0.33806570    -0.03000
Br733      Br  0.95287901  0.24125403  0.34836794    -0.01500
Br734      Br  0.92014628  0.26608312  0.37829697    -0.01600
Br735      Br  0.51428022  0.33392426  0.28106602    -0.01600
Br736      Br  0.48745941  0.36258470  0.31709794    -0.01600
C737        C  0.35414702  0.35061609  0.47119544    -0.02700
C738        C  0.36933191  0.34127251  0.48325002     0.07000
C739        C  0.36933686  0.33894086  0.51359914    -0.02800
C740        C  0.35865427  0.35036748  0.53160208    -0.02800
C741        C  0.34798735  0.36422440  0.51925670     0.07100
C742        C  0.34337717  0.36197730  0.48924554    -0.03000
Br743      Br  0.32364730  0.37572006  0.47290205    -0.01500
Br744      Br  0.35079160  0.35056488  0.42970852    -0.01600
Br745      Br  0.36127432  0.34974252  0.57322478    -0.01600
Br746      Br  0.38557267  0.32172147  0.53040193    -0.01600
C747        C  0.21608350  0.17313579  0.31725745    -0.02700
C748        C  0.20141016  0.18541786  0.31538268     0.07000
C749        C  0.17543073  0.17245024  0.32524618    -0.02800
C750        C  0.16400699  0.14720905  0.33576614    -0.02800
C751        C  0.17920317  0.13559028  0.33943768     0.07100
C752        C  0.20498613  0.14828901  0.32915249    -0.03000
Br753      Br  0.22451526  0.13089471  0.32922617    -0.01500
Br754      Br  0.25219541  0.19135573  0.30638725    -0.01600
Br755      Br  0.12732486  0.12884126  0.34476446    -0.01600
Br756      Br  0.15543513  0.18941257  0.32624533    -0.01600
C757        C  0.16671876  0.01092324  0.32409476    -0.02700
C758        C  0.18198665  0.03417628  0.33961017     0.07000
C759        C  0.20929354  0.04573524  0.33843397    -0.02800
C760        C  0.22090422  0.03389284  0.32285334    -0.02800
C761        C  0.20557774  0.01072463  0.30790968     0.07100
C762        C  0.17863214  0.99980349  0.30772558    -0.03000
Br763      Br  0.15432563  0.46403955  0.29615797    -0.01500
Br764      Br  0.12938639  0.99251628  0.32674490    -0.01600
Br765      Br  0.25803850  0.04918774  0.32228898    -0.01600
Br766      Br  0.23148603  0.07805037  0.35749558    -0.01600
C767        C  0.04628074  0.46971044  0.36292234    -0.02700
C768        C  0.06164755  0.47969123  0.38806549     0.07000
C769        C  0.05519088  0.46395073  0.41289594    -0.02800
C770        C  0.03204510  0.44032948  0.41405581    -0.02800
C771        C  0.01515754  0.43169129  0.39017940     0.07100
C772        C  0.02321329  0.44565881  0.36395371    -0.03000
Br773      Br  0.49713785  0.43771111  0.33278298    -0.01500
Br774      Br  0.05643230  0.98787867  0.32431476    -0.01600
Br775      Br  0.02346019  0.42047772  0.44936846    -0.01600
Br776      Br  0.07752907  0.47452753  0.44623983    -0.01600
C777        C  0.03828883  0.33062474  0.63131654    -0.02700
C778        C  0.04280227  0.35379068  0.64516896     0.07000
C779        C  0.03668208  0.35270788  0.67535662    -0.02800
C780        C  0.02461620  0.32909102  0.69036823    -0.02800
C781        C  0.01944974  0.30635422  0.67615056     0.07100
C782        C  0.02710717  0.30733505  0.64696825    -0.03000
Br783      Br  0.51780334  0.27544104  0.63001766    -0.01500
Br784      Br  0.54201331  0.32813753  0.59171553    -0.01600
Br785      Br  0.01409227  0.32747188  0.73047313    -0.01600
Br786      Br  0.04559620  0.38320215  0.69788089    -0.01600
C787        C  0.14292003  0.45536728  0.67658439    -0.02700
C788        C  0.14197814  0.45500200  0.64583109     0.07000
C789        C  0.16528090  0.46432737  0.62992387    -0.02800
C790        C  0.18896783  0.47448462  0.64428221    -0.02800
C791        C  0.19039277  0.47678194  0.67498211     0.07100
C792        C  0.16690456  0.46575002  0.69102589    -0.03000
Br793      Br  0.16686915  0.46372752  0.73273207    -0.01500
Br794      Br  0.11147061  0.44111473  0.69947313    -0.01600
Br795      Br  0.22166151  0.97253834  0.62691583    -0.01600
Br796      Br  0.16573923  0.46478720  0.58783505    -0.01600
C797        C  0.46447862  0.40226780  0.58221794    -0.02700
C798        C  0.48175840  0.41230904  0.60569315     0.07000
C799        C  0.47384617  0.41994719  0.63115319    -0.02800
C800        C  0.45117886  0.42166328  0.63113486    -0.02800
C801        C  0.43588634  0.41508425  0.60586512     0.07100
C802        C  0.44223714  0.40434353  0.58188572    -0.03000
Br803      Br  0.42232157  0.39417889  0.54655542    -0.01500
Br804      Br  0.47117250  0.38608161  0.54946813    -0.01600
Br805      Br  0.44361801  0.43639673  0.66466542    -0.01600
Br806      Br  0.99357574  0.43210984  0.66486280    -0.01600
C807        C  0.14220341  0.50272578  0.52579014    -0.02700
C808        C  0.12955747  0.47762853  0.51420536     0.07000
C809        C  0.13168932  0.47472709  0.48412323    -0.02800
C810        C  0.14451689  0.99419222  0.46275334    -0.02800
C811        C  0.15240481  0.01894718  0.47363079     0.07100
C812        C  0.15594565  0.02297695  0.50372367    -0.03000
Br813      Br  0.17220707  0.05716548  0.51882495    -0.01500
Br814      Br  0.14410103  0.50754930  0.56728322    -0.01600
Br815      Br  0.14677807  0.98963044  0.42161277    -0.01600
Br816      Br  0.12075020  0.44132759  0.46857061    -0.01600
C817        C  0.49765603  0.34836663  0.52656275    -0.02700
C818        C  0.02361706  0.36597177  0.51364969     0.07000
C819        C  0.02729646  0.36630750  0.48346331    -0.02800
C820        C  0.00573185  0.35500321  0.46506825    -0.02800
C821        C  0.47864292  0.34236983  0.47863798     0.07100
C822        C  0.47567076  0.33758218  0.50864779    -0.03000
Br823      Br  0.44169894  0.31755521  0.52511563    -0.01500
Br824      Br  0.49389724  0.34421669  0.56806072    -0.01600
Br825      Br  0.01036288  0.35680765  0.42352610    -0.01600
Br826      Br  0.06161498  0.38461790  0.46747440    -0.01600
C827        C  0.17422422  0.18146517  0.67937295    -0.02700
C828        C  0.18884993  0.20838612  0.68170380     0.07000
C829        C  0.18190578  0.22326510  0.66486337    -0.02800
C830        C  0.16047947  0.21132697  0.64597183    -0.02800
C831        C  0.14532763  0.18407590  0.64400612     0.07100
C832        C  0.15277380  0.16932379  0.66080934    -0.03000
Br833      Br  0.13548365  0.13235207  0.65678185    -0.01500
Br834      Br  0.18460224  0.16111516  0.70086331    -0.01600
Br835      Br  0.15275029  0.23299225  0.62281020    -0.01600
Br836      Br  0.20238356  0.26017701  0.66736380    -0.01600
C837        C  0.04613678  0.22115220  0.66421773    -0.02700
C838        C  0.02017540  0.20636789  0.67325769     0.07000
C839        C  0.00607169  0.18008137  0.66597304    -0.02800
C840        C  0.01802726  0.16838459  0.65076610    -0.02800
C841        C  0.04405998  0.18322551  0.64108775     0.07100
C842        C  0.05794198  0.20980145  0.64788304    -0.03000
Br843      Br  0.09353174  0.23093949  0.63622058    -0.01500
Br844      Br  0.06516709  0.25732969  0.67335179    -0.01600
Br845      Br  0.99791786  0.13187641  0.64311117    -0.01600
Br846      Br  0.47244487  0.16132744  0.68314240    -0.01600
C847        C  0.47656675  0.04813436  0.62621211    -0.02700
C848        C  0.48455109  0.06306084  0.60050621     0.07000
C849        C  0.46733616  0.05496349  0.57691870    -0.02800
C850        C  0.44492832  0.03057487  0.57696274    -0.02800
C851        C  0.43795705  0.01442440  0.60171891     0.07100
C852        C  0.45334776  0.02408205  0.62685712    -0.03000
Br853      Br  0.44082745  0.50685364  0.66427438    -0.01500
Br854      Br  0.99524045  0.05885904  0.65771019    -0.01600
Br855      Br  0.42547369  0.01951423  0.54134785    -0.01600
Br856      Br  0.47415180  0.07706310  0.54370614    -0.01600
C857        C  0.07222971  0.04555680  0.62497926    -0.02700
C858        C  0.08147219  0.06156137  0.60011877     0.07000
C859        C  0.09253563  0.05454286  0.57709358    -0.02800
C860        C  0.09156175  0.03076468  0.57725353    -0.02800
C861        C  0.08077304  0.01388391  0.60114231     0.07100
C862        C  0.07234091  0.02211345  0.62566746    -0.03000
Br863      Br  0.06130828  0.50205182  0.66215523    -0.01500
Br864      Br  0.05675797  0.05382668  0.65726080    -0.01600
Br865      Br  0.10407332  0.02129427  0.54328477    -0.01600
Br866      Br  0.10882674  0.07708826  0.54432075    -0.01600
C867        C  0.15902440  0.12951749  0.49966415    -0.02700
C868        C  0.15320908  0.12710935  0.46997211     0.07000
C869        C  0.14369138  0.14231728  0.45862622    -0.02800
C870        C  0.13385762  0.15408439  0.47746057    -0.02800
C871        C  0.13428299  0.15122372  0.50767095     0.07100
C872        C  0.14960064  0.14161200  0.51854070    -0.03000
Br873      Br  0.15596280  0.14369108  0.55956917    -0.01500
Br874      Br  0.18028522  0.11690455  0.51402890    -0.01600
Br875      Br  0.11898057  0.17314866  0.46215114    -0.01600
Br876      Br  0.14400715  0.14654034  0.41739459    -0.01600
C877        C  0.43873600  0.14869619  0.34032764    -0.02700
C878        C  0.45359697  0.13695891  0.34579216     0.07000
C879        C  0.47839035  0.14736869  0.33307503    -0.02800
C880        C  0.48906390  0.17041781  0.31731532    -0.02800
C881        C  0.47463240  0.18271685  0.31252911     0.07100
C882        C  0.44882211  0.17082981  0.32263420    -0.03000
Br883      Br  0.42707168  0.18426573  0.31167653    -0.01500
Br884      Br  0.40448592  0.13438847  0.35690009    -0.01600
Br885      Br  0.02298468  0.18477278  0.30102253    -0.01600
Br886      Br  0.00029477  0.13245111  0.34054935    -0.01600
C887        C  0.33468252  0.03193762  0.36636412    -0.02700
C888        C  0.35767678  0.03750423  0.35144093     0.07000
C889        C  0.35720543  0.03384280  0.32110967    -0.02800
C890        C  0.33388686  0.02431255  0.30592741    -0.02800
C891        C  0.31072550  0.01836412  0.32091397     0.07100
C892        C  0.31146771  0.02281488  0.35116061    -0.03000
Br893      Br  0.28079891  0.01691330  0.37226392    -0.01500
Br894      Br  0.33419859  0.03487333  0.40813848    -0.01600
Br895      Br  0.33409099  0.01825903  0.26474094    -0.01600
Br896      Br  0.38856068  0.04215676  0.29980051    -0.01600
C897        C  0.40717021  0.46201643  0.38589161    -0.02700
C898        C  0.42838407  0.48425825  0.39760532     0.07000
C899        C  0.44936660  0.48279739  0.40879182    -0.02800
C900        C  0.44823890  0.45914208  0.41090591    -0.02800
C901        C  0.42667124  0.43664078  0.40040518     0.07100
C902        C  0.40640955  0.43817718  0.38713230    -0.03000
Br903      Br  0.37748147  0.40757914  0.37156643    -0.01500
Br904      Br  0.37944757  0.46416201  0.36811522    -0.01600
Br905      Br  0.47701252  0.45818202  0.42788256    -0.01600
Br906      Br  0.48000114  0.01370265  0.42539203    -0.01600
C907        C  0.50464903  0.14734644  0.46367661    -0.02700
C908        C  0.47991586  0.13201061  0.47606226     0.07000
C909        C  0.47701847  0.13286485  0.50626160    -0.02800
C910        C  0.00075471  0.14067270  0.52448888    -0.02800
C911        C  0.02566753  0.15179746  0.51185494     0.07100
C912        C  0.02847893  0.15767103  0.48212328    -0.03000
Br913      Br  0.06244337  0.17838362  0.46578155    -0.01500
Br914      Br  0.50779147  0.15254835  0.42231039    -0.01600
Br915      Br  0.99693484  0.13731960  0.56591979    -0.01600
Br916      Br  0.44307254  0.11894265  0.52297929    -0.01600
C917        C  0.37239896  0.02213485  0.51012494    -0.02700
C918        C  0.37437859  0.01965478  0.48001596     0.07000
C919        C  0.36109955  0.49436302  0.46965173    -0.02800
C920        C  0.34920172  0.47200086  0.48685243    -0.02800
C921        C  0.34941027  0.47387926  0.51729007     0.07100
C922        C  0.35778580  0.49823159  0.52998688    -0.03000
Br923      Br  0.35696398  0.50134465  0.57154303    -0.01500
Br924      Br  0.38668121  0.05584027  0.52678851    -0.01600
Br925      Br  0.33474763  0.43878976  0.46898168    -0.01600
Br926      Br  0.36336478  0.99100273  0.42619588    -0.01600
C927        C  0.05747255  0.08779984  0.40648753    -0.02700
C928        C  0.06248563  0.07500196  0.38354675     0.07000
C929        C  0.04625956  0.06721479  0.35887479    -0.02800
C930        C  0.02383679  0.06938763  0.35894882    -0.02800
C931        C  0.01734688  0.07901101  0.38365223     0.07100
C932        C  0.03529266  0.09003618  0.40620611    -0.03000
Br933      Br  0.02907986  0.10764881  0.43765976    -0.01500
Br934      Br  0.07967218  0.10140997  0.43980594    -0.01600
Br935      Br  0.00101041  0.05709593  0.32608425    -0.01600
Br936      Br  0.05235252  0.05086413  0.32591022    -0.01600
Fe937      Fe  0.44764944  0.55460527  0.44047454     1.65800
Fe938      Fe  0.43648600  0.55853291  0.36964289     1.73200
Fe939      Fe  0.41471135  0.58418009  0.42149070     1.54400
O940        O  0.38991278  0.55405434  0.44906202    -0.82500
O941        O  0.44194056  0.59379499  0.35568224    -0.80800
O942        O  0.41682630  0.54343939  0.46910995    -0.85000
O943        O  0.46775071  0.59086323  0.45711851    -0.79900
O944        O  0.38716222  0.56661967  0.38948381    -0.81600
O945        O  0.47632348  0.57524615  0.37176329    -0.84400
C946        C  0.46191373  0.60793039  0.46244094     0.96400
C947        C  0.39448242  0.54066295  0.46657743     1.03800
O948        O  0.43305689  0.56589187  0.41043016    -1.13400
O949        O  0.43231122  0.52245213  0.37763514    -0.75800
O950        O  0.42960815  0.51746153  0.42559624    -0.79300
O951        O  0.44069277  0.60588728  0.45445462    -0.80000
C952        C  0.42917667  0.50912303  0.40017048     0.95300
O953        O  0.48010098  0.56360475  0.41612372    -0.77900
O954        O  0.39706075  0.54101094  0.36435997    -0.83100
C955        C  0.44378722  0.61386333  0.36741824     0.97900
C956        C  0.38169685  0.54909298  0.37075205     1.03800
O957        O  0.43715099  0.61437734  0.39364301    -0.78800
C958        C  0.48949271  0.57257845  0.39130928     1.02100
Fe959      Fe  0.06416261  0.62308770  0.62477718     1.65800
Fe960      Fe  0.05771564  0.60816309  0.55263255     1.73200
Fe961      Fe  0.08968210  0.67125219  0.57344732     1.54400
O962        O  0.06979287  0.68044963  0.60435335    -0.82500
O963        O  0.09236605  0.62563968  0.53048199    -0.80800
O964        O  0.05183349  0.64830522  0.63602059    -0.85000
O965        O  0.10159682  0.64980192  0.63694456    -0.79900
O966        O  0.06176184  0.66751586  0.54401719    -0.81600
O967        O  0.06953422  0.58565064  0.57259209    -0.84400
C968        C  0.12062123  0.66999232  0.62629210     0.96400
C969        C  0.05591170  0.66976750  0.62674758     1.03800
O970        O  0.07055342  0.63420852  0.58370010    -1.13400
O971        O  0.02196184  0.58671612  0.57118162    -0.75800
O972        O  0.02533818  0.59514857  0.61812569    -0.79300
O973        O  0.11916042  0.67922407  0.60221043    -0.80000
C974        C  0.01193305  0.58292584  0.59623946     0.95300
O975        O  0.07608049  0.59630552  0.61904579    -0.77900
O976        O  0.04288680  0.62679677  0.52922305    -0.83100
C977        C  0.11153261  0.64813322  0.52801507     0.97900
C978        C  0.04499736  0.64881753  0.52914998     1.03800
O979        O  0.11276297  0.66727577  0.54136747    -0.78800
C980        C  0.07597876  0.58280882  0.59770940     1.02100
Fe981      Fe  0.05613991  0.94152898  0.55423737     1.65800
Fe982      Fe  0.06499565  0.93594383  0.62605420     1.73200
Fe983      Fe  0.08915142  0.91149814  0.57448292     1.54400
O984        O  0.06153574  0.88711259  0.54431975    -0.82500
O985        O  0.10265805  0.94730004  0.63736666    -0.80800
O986        O  0.04172943  0.90803168  0.53064425    -0.85000
O987        O  0.09090625  0.95913467  0.53181817    -0.79900
O988        O  0.06938449  0.88297030  0.60535006    -0.81600
O989        O  0.07693221  0.97466687  0.61956441    -0.84400
C990        C  0.11076380  0.95676816  0.52973106     0.96400
C991        C  0.04446377  0.88854925  0.52972566     1.03800
O992        O  0.07016690  0.92967591  0.58500273    -1.13400
O993        O  0.02643356  0.92537219  0.62085328    -0.75800
O994        O  0.02046785  0.92642555  0.57371724    -0.79300
O995        O  0.11252507  0.93924035  0.54305336    -0.80000
C996        C  0.01197642  0.92244475  0.59964558     0.95300
O997        O  0.06703555  0.97608712  0.57376586    -0.77900
O998        O  0.05229696  0.89807492  0.63723011    -0.83100
C999        C  0.12053626  0.94373822  0.62762467     0.97900
C1000       C  0.05605587  0.88024261  0.62820351     1.03800
O1001       O  0.11810802  0.93158795  0.60417389    -0.78800
C1002       C  0.07488589  0.98669788  0.59819574     1.02100
Fe1003     Fe  0.12265999  0.55685775  0.35962707     1.65800
Fe1004     Fe  0.10836259  0.55395675  0.43201383     1.73200
Fe1005     Fe  0.17151166  0.58207943  0.41014501     1.54400
O1006       O  0.17813454  0.55831869  0.38294971    -0.82500
O1007       O  0.12825011  0.58893903  0.45297335    -0.80800
O1008       O  0.14863146  0.54514565  0.34843037    -0.85000
O1009       O  0.14821070  0.59371370  0.34663537    -0.79900
O1010       O  0.16668562  0.55633967  0.44352067    -0.81600
O1011       O  0.08772677  0.56769522  0.41176366    -0.84400
C1012       C  0.16977080  0.61167536  0.35553874     0.96400
C1013       C  0.16830877  0.54610811  0.35962429     1.03800
O1014       O  0.13421368  0.56435713  0.40052702    -1.13400
O1015       O  0.08476591  0.51838092  0.41430729    -0.75800
O1016       O  0.09591725  0.51882107  0.36813972    -0.79300
O1017       O  0.18092129  0.60948644  0.37775145    -0.80000
C1018       C  0.08220088  0.50718882  0.39015690     0.95300
O1019       O  0.09465422  0.56764306  0.36450905    -0.77900
O1020       O  0.12511562  0.53762677  0.45619709    -0.83100
C1021       C  0.15101438  0.60814348  0.45290618     0.97900
C1022       C  0.14725942  0.53988395  0.45819539     1.03800
O1023       O  0.16942825  0.60846157  0.43845975    -0.78800
C1024       C  0.08325167  0.57113998  0.38597334     1.02100
Fe1025     Fe  0.43584553  0.87250607  0.37091648     1.65800
Fe1026     Fe  0.44420148  0.88505308  0.44268869     1.73200
Fe1027     Fe  0.41415333  0.82383193  0.41916345     1.54400
O1028       O  0.38796143  0.81462253  0.38521028    -0.82500
O1029       O  0.46499910  0.86952089  0.45813496    -0.80800
O1030       O  0.39646329  0.85095005  0.36381897    -0.85000
O1031       O  0.44102466  0.84310679  0.35409524    -0.79900
O1032       O  0.38737296  0.82619504  0.44675362    -0.81600
O1033       O  0.47705652  0.91049233  0.41979960    -0.84400
C1034       C  0.44516742  0.82645073  0.36557994     0.96400
C1035       C  0.38180486  0.82695930  0.36785132     1.03800
O1036       O  0.43119980  0.86046359  0.41096023    -1.13400
O1037       O  0.42504710  0.90324507  0.42903006    -0.75800
O1038       O  0.43207659  0.90425361  0.38140718    -0.79300
O1039       O  0.43973047  0.82012380  0.39203414    -0.80000
C1040       C  0.42704066  0.91298842  0.40423783     0.95300
O1041       O  0.47555722  0.89462517  0.37578747    -0.77900
O1042       O  0.41300097  0.86291376  0.46984727    -0.83100
C1043       C  0.45967993  0.84667709  0.46229914     0.97900
C1044       C  0.39114037  0.84286739  0.46616362     1.03800
O1045       O  0.43885279  0.82742018  0.45331486    -0.78800
C1046       C  0.48773083  0.91079237  0.39573464     1.02100
Fe1047     Fe  0.37552032  0.93601790  0.62953025     1.65800
Fe1048     Fe  0.39122611  0.94080942  0.55756221     1.73200
Fe1049     Fe  0.32735290  0.91090547  0.57860938     1.54400
O1050       O  0.31766535  0.88234361  0.60963786    -0.82500
O1051       O  0.37430034  0.95682892  0.53412338    -0.80800
O1052       O  0.34898941  0.89838672  0.64224296    -0.85000
O1053       O  0.35009320  0.94880864  0.63991889    -0.79900
O1054       O  0.33106297  0.88631460  0.54852040    -0.81600
O1055       O  0.41408604  0.97608658  0.57528463    -0.84400
C1056       C  0.32899387  0.94567621  0.63008344     0.96400
C1057       C  0.32767630  0.88005810  0.63279215     1.03800
O1058       O  0.36463382  0.92915424  0.58865719    -1.13400
O1059       O  0.41230816  0.92765673  0.57770471    -0.75800
O1060       O  0.40272899  0.92432960  0.62450916    -0.79300
O1061       O  0.31846482  0.93192430  0.60783111    -0.80000
C1062       C  0.41550255  0.92256906  0.60320859     0.95300
O1063       O  0.40337911  0.97454227  0.62161258    -0.77900
O1064       O  0.37268158  0.90662559  0.53579501    -0.83100
C1065       C  0.35251234  0.95533136  0.53318952     0.97900
C1066       C  0.35017283  0.88730296  0.53480695     1.03800
O1067       O  0.33283392  0.93860632  0.54737637    -0.78800
C1068       C  0.41697925  0.98682117  0.59961944     1.02100
Fe1069     Fe  0.23131984  0.95470495  0.31061743     1.65800
Fe1070     Fe  0.23570295  0.92956945  0.24604514     1.73200
Fe1071     Fe  0.25153993  0.49084634  0.25458950     1.54400
O1072       O  0.22906773  0.50137760  0.27935895    -0.82500
O1073       O  0.27164672  0.94914504  0.22613963    -0.80800
O1074       O  0.21504588  0.97758793  0.31086287    -0.85000
O1075       O  0.26739658  0.98495863  0.31976439    -0.79900
O1076       O  0.22608585  0.97820712  0.21689489    -0.81600
O1077       O  0.25136218  0.91638342  0.27662279    -0.84400
C1078       C  0.28370365  0.50201622  0.31065430     0.96400
C1079       C  0.21500149  0.49317554  0.30199216     1.03800
O1080       O  0.24005912  0.95906148  0.26875778    -1.13400
O1081       O  0.19918186  0.90625328  0.26316006    -0.75800
O1082       O  0.19478096  0.92273099  0.30487763    -0.79300
O1083       O  0.28131505  0.50738193  0.28458867    -0.80000
C1084       C  0.18628674  0.90498917  0.28585609     0.95300
O1085       O  0.24575392  0.93101626  0.31876421    -0.77900
O1086       O  0.21903892  0.93830147  0.21250771    -0.83100
C1087       C  0.28441676  0.97160371  0.21572859     0.97900
C1088       C  0.21612598  0.95662027  0.20375990     1.03800
O1089       O  0.27942511  0.98906009  0.22245952    -0.78800
C1090       C  0.25156948  0.91686057  0.30411572     1.02100
Fe1091     Fe  0.11714230  0.86678623  0.06973570     1.65800
Fe1092     Fe  0.10416646  0.88812811  0.00878561     1.73200
Fe1093     Fe  0.09409028  0.90752116  0.07444006     1.54400
O1094       O  0.06968120  0.87650962  0.10182529    -0.82500
O1095       O  0.10923707  0.92457934  0.00617509    -0.80800
O1096       O  0.08910272  0.85313339  0.10210561    -0.85000
O1097       O  0.14194638  0.89575948  0.09623589    -0.79900
O1098       O  0.06273463  0.89740742  0.04602755    -0.81600
O1099       O  0.14343047  0.90422048  0.00682969    -0.84400
C1100       C  0.14205791  0.91424419  0.10937269     0.96400
C1101       C  0.07227801  0.85826562  0.11194018     1.03800
O1102       O  0.10485940  0.88732296  0.05137049    -1.13400
O1103       O  0.09873555  0.85146246  0.00225324    -0.75800
O1104       O  0.09267998  0.83510624  0.04624514    -0.79300
O1105       O  0.12474521  0.92012561  0.10425295    -0.80000
C1106       C  0.09174840  0.83256027  0.01910002     0.95300
O1107       O  0.14773821  0.87955454  0.03965344    -0.77900
O1108       O  0.06534456  0.87325725  0.01027918    -0.83100
C1109       C  0.11908668  0.94357409  0.02322899     0.97900
C1110       C  0.05358042  0.88299380  0.02351055     1.03800
O1111       O  0.11818372  0.94042319  0.05049348    -0.78800
C1112       C  0.15700947  0.89714916  0.02033206     1.02100
Fe1113     Fe  0.03887838  0.76294468  0.30871950     1.65800
Fe1114     Fe  0.06208338  0.76632127  0.24007966     1.73200
Fe1115     Fe  0.49836814  0.74738229  0.25183561     1.54400
O1116       O  0.48238041  0.71361956  0.27719102    -0.82500
O1117       O  0.05119149  0.78535806  0.21162831    -0.80800
O1118       O  0.00793861  0.72647534  0.31673631    -0.85000
O1119       O  0.01666210  0.77986467  0.31455226    -0.79900
O1120       O  0.50465556  0.72714601  0.21872513    -0.81600
O1121       O  0.08572107  0.80075910  0.25988054    -0.84400
C1122       C  0.49433873  0.77702008  0.30571923     0.96400
C1123       C  0.48776524  0.70869719  0.30222116     1.03800
O1124       O  0.03296723  0.75820478  0.26636408    -1.13400
O1125       O  0.07736356  0.74935178  0.26524069    -0.75800
O1126       O  0.06235792  0.74717930  0.30993481    -0.79300
O1127       O  0.48650758  0.76566305  0.28152163    -0.80000
C1128       C  0.07685278  0.74436209  0.29195794     0.95300
O1129       O  0.07155470  0.79946115  0.30520158    -0.77900
O1130       O  0.04273391  0.73247758  0.21751898    -0.83100
C1131       C  0.03231510  0.78902054  0.20768664     0.97900
C1132       C  0.01981361  0.71898972  0.20870018     1.03800
O1133       O  0.01076468  0.77608647  0.22121436    -0.78800
C1134       C  0.08822193  0.81037586  0.28500311     1.02100
Fe1135     Fe  0.10524190  0.70125656  0.02054899     1.65800
Fe1136     Fe  0.10353447  0.72867506  0.08370201     1.73200
Fe1137     Fe  0.08268133  0.66435691  0.08242546     1.54400
O1138       O  0.05481521  0.64667064  0.05018441    -0.82500
O1139       O  0.12222442  0.72112981  0.11569729    -0.80800
O1140       O  0.06746480  0.67358381  0.01241087    -0.85000
O1141       O  0.11599558  0.67431664  0.01963335    -0.79900
O1142       O  0.05620782  0.66897179  0.10767337    -0.81600
O1143       O  0.13924515  0.75098678  0.06394237    -0.84400
C1144       C  0.11604296  0.65796546  0.03632230     0.96400
C1145       C  0.05103702  0.65290541  0.02503267     1.03800
O1146       O  0.09712182  0.69792973  0.06237574    -1.13400
O1147       O  0.08524994  0.73953559  0.05401037    -0.75800
O1148       O  0.09583504  0.72892178  0.01217156    -0.79300
O1149       O  0.10632587  0.65359137  0.06153256    -0.80000
C1150       C  0.08736025  0.74100824  0.02663345     0.95300
O1151       O  0.14388668  0.72932769  0.02722256    -0.77900
O1152       O  0.06942340  0.71064853  0.10686641    -0.83100
C1153       C  0.12316552  0.70213604  0.12595417     0.97900
C1154       C  0.05408103  0.68802813  0.11560061     1.03800
O1155       O  0.10986800  0.67945166  0.11581419    -0.78800
C1156       C  0.15316171  0.74829282  0.04474379     1.02100
Fe1157     Fe  0.29268046  0.89287437  0.02191840     1.65800
Fe1158     Fe  0.27008622  0.89348033  0.08958534     1.73200
Fe1159     Fe  0.33477526  0.91620772  0.07890869     1.54400
O1160       O  0.34422439  0.89301943  0.05455932    -0.82500
O1161       O  0.29021363  0.92733062  0.11306231    -0.80800
O1162       O  0.31893482  0.88102907  0.01613503    -0.85000
O1163       O  0.31961905  0.93006232  0.01113406    -0.79900
O1164       O  0.32277729  0.88896405  0.11295385    -0.81600
O1165       O  0.25626770  0.91153220  0.06383035    -0.84400
C1166       C  0.33978395  0.94816643  0.02273962     0.96400
C1167       C  0.33697423  0.88159553  0.03043624     1.03800
O1168       O  0.29930402  0.90083473  0.06363849    -1.13400
O1169       O  0.24588009  0.85828341  0.06967358    -0.75800
O1170       O  0.26533957  0.85500541  0.02980613    -0.79300
O1171       O  0.34854743  0.94523950  0.04676581    -0.80000
C1172       C  0.24721185  0.84524689  0.04849964     0.95300
O1173       O  0.26454384  0.90287050  0.01975310    -0.77900
O1174       O  0.28045312  0.87467888  0.11874827    -0.83100
C1175       C  0.31378975  0.94318191  0.11843315     0.97900
C1176       C  0.30104492  0.87512070  0.12602869     1.03800
O1177       O  0.33218533  0.94185748  0.10650465    -0.78800
C1178       C  0.25309073  0.91056607  0.03665734     1.02100
Fe1179     Fe  0.21745463  0.79063231  0.26032957     1.65800
Fe1180     Fe  0.22717223  0.76719382  0.32285145     1.73200
Fe1181     Fe  0.24538853  0.75383429  0.25612756     1.54400
O1182       O  0.21351190  0.73658693  0.22743392    -0.82500
O1183       O  0.26512768  0.77690518  0.32613239    -0.80800
O1184       O  0.20242129  0.76628029  0.22623634    -0.85000
O1185       O  0.25079968  0.81198480  0.23720425    -0.79900
O1186       O  0.22713127  0.71971213  0.28010690    -0.81600
O1187       O  0.23935035  0.80540529  0.33119921    -0.84400
C1188       C  0.26611682  0.80672997  0.22364273     0.96400
C1189       C  0.19982220  0.74542984  0.21717689     1.03800
O1190       O  0.23024988  0.77060469  0.27986559    -1.13400
O1191       O  0.18823640  0.75627310  0.32331136    -0.75800
O1192       O  0.18208704  0.76977796  0.28088933    -0.79300
O1193       O  0.26584330  0.78566537  0.22790741    -0.80000
C1194       C  0.17359129  0.75739392  0.30444509     0.95300
O1195       O  0.23128345  0.81927238  0.29056367    -0.77900
O1196       O  0.21510755  0.72894284  0.32222138    -0.83100
C1197       C  0.28229784  0.77700262  0.30958143     0.97900
C1198       C  0.21626976  0.71320026  0.30495198     1.03800
O1199       O  0.27800445  0.76924624  0.28318589    -0.78800
C1200       C  0.23942394  0.82285195  0.31620085     1.02100
Fe1201     Fe  0.40027943  0.62597921  0.90620132     1.65800
Fe1202     Fe  0.39909548  0.60114039  0.97177918     1.73200
Fe1203     Fe  0.41915655  0.58133620  0.91115632     1.54400
O1204       O  0.39224185  0.56879219  0.87700287    -0.82500
O1205       O  0.43624330  0.61027458  0.97933467    -0.80800
O1206       O  0.37937215  0.59768607  0.87679229    -0.85000
O1207       O  0.43331439  0.63920751  0.88165069    -0.79900
O1208       O  0.39396396  0.54807438  0.93437867    -0.81600
O1209       O  0.41041246  0.63964474  0.97657605    -0.84400
C1210       C  0.44894192  0.63174401  0.87459607     0.96400
C1211       C  0.37882548  0.57784545  0.86650796     1.03800
O1212       O  0.40606488  0.60255686  0.92958079    -1.13400
O1213       O  0.36133404  0.59279388  0.96678942    -0.75800
O1214       O  0.36629350  0.61593609  0.92740924    -0.79300
O1215       O  0.44689282  0.61112877  0.88453209    -0.80000
C1216       C  0.35324843  0.60331994  0.94933006     0.95300
O1217       O  0.42051913  0.65723690  0.93303618    -0.77900
O1218       O  0.38646658  0.56238429  0.97586873    -0.83100
C1219       C  0.45169670  0.60411000  0.96780593     0.97900
C1220       C  0.38512246  0.54438874  0.96021646     1.03800
O1221       O  0.44706841  0.59208908  0.94359537    -0.78800
C1222       C  0.41878170  0.65903594  0.96023989     1.02100
Fe1223     Fe  0.46142311  0.72725886  0.68903073     1.65800
Fe1224     Fe  0.44034963  0.71134879  0.75891153     1.73200
Fe1225     Fe  0.00512739  0.74886294  0.74347251     1.54400
O1226       O  0.01549537  0.72849202  0.71495125    -0.82500
O1227       O  0.45506172  0.74205577  0.78778928    -0.80800
O1228       O  0.49150697  0.72064264  0.67880172    -0.85000
O1229       O  0.48427867  0.76619186  0.68279000    -0.79900
O1230       O  0.00018706  0.72208364  0.77581767    -0.81600
O1231       O  0.41930614  0.72606072  0.74166903    -0.84400
C1232       C  0.00643988  0.78301460  0.69173503     0.96400
C1233       C  0.00811175  0.71958893  0.68949271     1.03800
O1234       O  0.46876955  0.72938627  0.73098144    -1.13400
O1235       O  0.42072172  0.67878899  0.73353861    -0.75800
O1236       O  0.43719043  0.68818290  0.68883600    -0.79300
O1237       O  0.01655908  0.77849660  0.71330415    -0.80000
C1238       C  0.42087100  0.67289789  0.70709734     0.95300
O1239       O  0.42927685  0.73195200  0.69446989    -0.77900
O1240       O  0.45771092  0.69367634  0.77887408    -0.83100
C1241       C  0.47482024  0.76443633  0.78916243     0.97900
C1242       C  0.48060425  0.70147535  0.78689033     1.03800
O1243       O  0.99707344  0.77092017  0.77280422    -0.78800
C1244       C  0.41489876  0.73004949  0.71604630     1.02100
Fe1245     Fe  0.39808172  0.78840136  0.98061871     1.65800
Fe1246     Fe  0.38973497  0.76177856  0.91373595     1.73200
Fe1247     Fe  0.41509875  0.82664021  0.91957001     1.54400
O1248       O  0.39266458  0.83636696  0.94566551    -0.82500
O1249       O  0.42159229  0.77896775  0.88613383    -0.80800
O1250       O  0.38789052  0.81572374  0.98706628    -0.85000
O1251       O  0.43651236  0.81507331  0.98504920    -0.79900
O1252       O  0.38594350  0.81382028  0.88800551    -0.81600
O1253       O  0.40908868  0.74810852  0.93739674    -0.84400
C1254       C  0.45148101  0.83638891  0.97273846     0.96400
C1255       C  0.38516491  0.83149181  0.97192500     1.03800
O1256       O  0.40110502  0.79241483  0.93785757    -1.13400
O1257       O  0.35595656  0.74103427  0.93788747    -0.75800
O1258       O  0.35909826  0.76181593  0.97922832    -0.79300
O1259       O  0.44548356  0.84338942  0.94943176    -0.80000
C1260       C  0.34607156  0.74423489  0.96104610     0.95300
O1261       O  0.40742826  0.75976308  0.98272760    -0.77900
O1262       O  0.36907397  0.77144072  0.88683545    -0.83100
C1263       C  0.43851094  0.80164186  0.87877701     0.97900
C1264       C  0.36995801  0.79167666  0.87795496     1.03800
O1265       O  0.43944036  0.82144822  0.89018430    -0.78800
C1266       C  0.41207363  0.74690579  0.96432218     1.02100
Fe1267     Fe  0.20934016  0.60088277  0.97540891     1.65800
Fe1268     Fe  0.23020233  0.61935227  0.90590285     1.73200
Fe1269     Fe  0.16572497  0.58085838  0.91881237     1.54400
O1270       O  0.15507422  0.54975326  0.94629586    -0.82500
O1271       O  0.21214776  0.63539373  0.88391384    -0.80800
O1272       O  0.18510249  0.56184154  0.98033928    -0.85000
O1273       O  0.18038525  0.60779694  0.98678613    -0.79900
O1274       O  0.17542587  0.56128244  0.88748030    -0.81600
O1275       O  0.24671261  0.65140012  0.93076663    -0.84400
C1276       C  0.16140081  0.60752093  0.97472490     0.96400
C1277       C  0.16442176  0.54507150  0.96842172     1.03800
O1278       O  0.20170602  0.60024564  0.93346529    -1.13400
O1279       O  0.25344186  0.60767215  0.92440907    -0.75800
O1280       O  0.23991856  0.59462775  0.96960871    -0.79300
O1281       O  0.15364039  0.59856565  0.94934068    -0.80000
C1282       C  0.25598738  0.60005773  0.94898546     0.95300
O1283       O  0.23501087  0.64041391  0.97654170    -0.77900
O1284       O  0.21712533  0.58874268  0.87817306    -0.83100
C1285       C  0.18914340  0.62913731  0.87818520     0.97900
C1286       C  0.19665123  0.56737016  0.87427797     1.03800
O1287       O  0.16994645  0.60897070  0.88868635    -0.78800
C1288       C  0.24803119  0.65712357  0.95732258     1.02100
Fe1289     Fe  0.26975093  0.54270026  0.67666095     1.65800
Fe1290     Fe  0.27718815  0.57061770  0.74283488     1.73200
Fe1291     Fe  0.25538186  0.00716451  0.74135713     1.54400
O1292       O  0.22112654  0.98934863  0.71742153    -0.82500
O1293       O  0.29409055  0.56058945  0.77470063    -0.80800
O1294       O  0.23328832  0.51137984  0.67332854    -0.85000
O1295       O  0.28727196  0.52098282  0.67281677    -0.79900
O1296       O  0.23632052  0.01472453  0.77601031    -0.81600
O1297       O  0.31245371  0.58921980  0.72207265    -0.84400
C1298       C  0.28617604  0.00318238  0.68788315     0.96400
C1299       C  0.21734385  0.99161598  0.69060961     1.03800
O1300       O  0.26716723  0.54000745  0.71937173    -1.13400
O1301       O  0.26207529  0.58565728  0.71527211    -0.75800
O1302       O  0.25265890  0.56500799  0.67322916    -0.79300
O1303       O  0.27227209  0.99405118  0.71062037    -0.80000
C1304       C  0.25251559  0.58146019  0.69023314     0.95300
O1305       O  0.30663471  0.57442322  0.67658322    -0.77900
O1306       O  0.24264368  0.55422260  0.76543161    -0.83100
C1307       C  0.30094879  0.54402330  0.77738713     0.97900
C1308       C  0.23197014  0.53334676  0.77944626     1.03800
O1309       O  0.28997063  0.02376285  0.76524844    -0.78800
C1310       C  0.32074224  0.58914990  0.69663522     1.02100
Fe1311     Fe  0.27019963  0.70490089  0.75608853     1.65800
Fe1312     Fe  0.26980073  0.72665889  0.68832596     1.73200
Fe1313     Fe  0.24859957  0.74661801  0.74758808     1.54400
O1314       O  0.22669284  0.72018354  0.78113105    -0.82500
O1315       O  0.28770395  0.76602054  0.68530388    -0.80800
O1316       O  0.23477293  0.68831163  0.77670050    -0.85000
O1317       O  0.28747378  0.73408566  0.78646811    -0.79900
O1318       O  0.21661715  0.72781317  0.72016598    -0.81600
O1319       O  0.30599855  0.73025999  0.69262785    -0.84400
C1320       C  0.29273980  0.75726045  0.78931779     0.96400
C1321       C  0.22213823  0.69782398  0.78804050     1.03800
O1322       O  0.26298139  0.72612440  0.73051266    -1.13400
O1323       O  0.25319224  0.68725508  0.68473234    -0.75800
O1324       O  0.25527954  0.67386875  0.72877185    -0.79300
O1325       O  0.28071582  0.76622819  0.77530101    -0.80000
C1326       C  0.25034069  0.66978459  0.70202631     0.95300
O1327       O  0.30581713  0.71751925  0.73788694    -0.77900
O1328       O  0.23405953  0.72220076  0.67920991    -0.83100
C1329       C  0.28194513  0.78205026  0.69560066     0.97900
C1330       C  0.21509292  0.72074345  0.69363518     1.03800
O1331       O  0.26698584  0.77685610  0.71755282    -0.78800
C1332       C  0.31649158  0.72513317  0.71322919     1.02100
C1333       C  0.25362703  0.61661511  0.66156839    -0.02700
C1334       C  0.24093043  0.59692863  0.68199846     0.07000
C1335       C  0.22449155  0.59862963  0.70262052    -0.02800
C1336       C  0.22571656  0.62209282  0.70768847    -0.02800
C1337       C  0.24252727  0.64378516  0.69087786     0.07100
C1338       C  0.25537132  0.64055619  0.66650815    -0.03000
Br1339     Br  0.27927823  0.66943163  0.64310741    -0.01500
Br1340     Br  0.26958541  0.61089112  0.62807005    -0.01600
Br1341     Br  0.20700193  0.62461448  0.74045278    -0.01600
Br1342     Br  0.20314863  0.56938146  0.72668324    -0.01600
C1343       C  0.19560585  0.67207428  0.86299846    -0.02700
C1344       C  0.18574472  0.64579491  0.85692370     0.07000
C1345       C  0.17877078  0.63749449  0.82817319    -0.02800
C1346       C  0.18559740  0.65571094  0.80583572    -0.02800
C1347       C  0.20279596  0.68198047  0.81117070     0.07100
C1348       C  0.20576671  0.69038162  0.84027147    -0.03000
Br1349     Br  0.22434532  0.72644443  0.84908205    -0.01500
Br1350     Br  0.19190177  0.68190212  0.90173135    -0.01600
Br1351     Br  0.16884099  0.64556090  0.76913754    -0.01600
Br1352     Br  0.16145292  0.60154019  0.81901120    -0.01600
C1353       C  0.19295369  0.53065290  0.80541886    -0.02700
C1354       C  0.21743916  0.53251795  0.80632547     0.07000
C1355       C  0.23071493  0.53901108  0.83280195    -0.02800
C1356       C  0.22141870  0.54681899  0.85660250    -0.02800
C1357       C  0.19938519  0.54944062  0.85396188     0.07100
C1358       C  0.18389956  0.53912395  0.82921345    -0.03000
Br1359     Br  0.15091727  0.53726063  0.82750204    -0.01500
Br1360     Br  0.17176266  0.51629172  0.77192292    -0.01600
Br1361     Br  0.23941036  0.55452195  0.89290806    -0.01600
Br1362     Br  0.26311306  0.53971207  0.83600836    -0.01600
C1363       C  0.28256391  0.69018583  0.99048416     0.02700
C1364       C  0.26757802  0.68411114  0.96500361     0.07000
C1365       C  0.27596590  0.70285598  0.94293135    -0.02800
C1366       C  0.30121288  0.72366377  0.94284013    -0.02800
C1367       C  0.31791067  0.72705776  0.96566481     0.07100
C1368       C  0.30752468  0.71225659  0.99101571    -0.03000
Br1369     Br  0.32735289  0.72175025  0.02601989    -0.01500
Br1370     Br  0.27066734  0.66770365  0.02366555    -0.01600
Br1371     Br  0.31283333  0.74728523  0.91084308    -0.01600
Br1372     Br  0.25402392  0.69947109  0.91106087    -0.01600
C1373       C  0.35356095  0.77523669  0.82845555    -0.02700
C1374       C  0.35249953  0.78837904  0.85339680     0.07000
C1375       C  0.33332876  0.79564218  0.85494781    -0.02800
C1376       C  0.31382269  0.78700660  0.83332968    -0.02800
C1377       C  0.31517455  0.77357757  0.80869893     0.07100
C1378       C  0.33719879  0.77112261  0.80526811    -0.03000
Br1379     Br  0.34688559  0.76474136  0.76782483    -0.01500
Br1380     Br  0.37500457  0.75966187  0.82621161    -0.01600
Br1381     Br  0.28530355  0.79297391  0.83768947    -0.01600
Br1382     Br  0.33221383  0.81496381  0.88782646    -0.01600
C1383       C  0.36668212  0.60385717  0.70571804    -0.02700
C1384       C  0.34823312  0.60713078  0.69089249     0.07000
C1385       C  0.35593311  0.62992582  0.67562515    -0.02800
C1386       C  0.38170270  0.65002965  0.67681039    -0.02800
C1387       C  0.39881116  0.64862594  0.69656457     0.07100
C1388       C  0.39135025  0.62512597  0.71040978    -0.03000
Br1389     Br  0.41355691  0.62234228  0.73772070    -0.01500
Br1390     Br  0.35751130  0.57043871  0.72056111    -0.01600
Br1391     Br  0.39198756  0.68060608  0.65427025    -0.01600
Br1392     Br  0.33057822  0.63518473  0.65680126    -0.01600
C1393       C  0.38830123  0.74975994  0.70016287    -0.02700
C1394       C  0.38996408  0.72898443  0.71151873     0.07000
C1395       C  0.36714007  0.70646273  0.72023873    -0.02800
C1396       C  0.34308054  0.70468873  0.71764931    -0.02800
C1397       C  0.34150996  0.72617158  0.70885207     0.07100
C1398       C  0.36410297  0.74861633  0.69952286    -0.03000
Br1399     Br  0.36227152  0.77841377  0.68845367    -0.01500
Br1400     Br  0.41921164  0.78033494  0.68767256    -0.01600
Br1401     Br  0.31204145  0.67227731  0.72618230    -0.01600
Br1402     Br  0.36818560  0.67778711  0.73716064    -0.01600
C1403       C  0.44727897  0.80246332  0.82574330    -0.02700
C1404       C  0.45608367  0.80397520  0.85415037     0.07000
C1405       C  0.47741703  0.80054183  0.85825849    -0.02800
C1406       C  0.48645337  0.79114321  0.83535534    -0.02800
C1407       C  0.47277349  0.78314758  0.80908994     0.07100
C1408       C  0.45414791  0.79045767  0.80379371    -0.03000
Br1409     Br  0.43730799  0.78343594  0.76693975    -0.01500
Br1410     Br  0.42738207  0.81855076  0.81694952    -0.01600
Br1411     Br  0.51739509  0.78952342  0.83982044    -0.01600
Br1412     Br  0.49490347  0.81016795  0.89462981    -0.01600
C1413       C  0.30555850  0.57972124  0.96272594    -0.02700
C1414       C  0.32837946  0.60249009  0.95442349     0.07000
C1415       C  0.32725409  0.62497955  0.94891498    -0.02800
C1416       C  0.30350977  0.62405635  0.94928146    -0.02800
C1417       C  0.28046868  0.60066324  0.95408685     0.07100
C1418       C  0.28150878  0.57878227  0.96233325    -0.03000
Br1419     Br  0.25005304  0.54743342  0.97182125    -0.01500
Br1420     Br  0.30665464  0.54942694  0.97307537    -0.01600
Br1421     Br  0.30291742  0.65549828  0.94379490    -0.01600
Br1422     Br  0.35795418  0.65771438  0.94047177    -0.01600
C1423       C  0.34308446  0.54067685  0.83783878    -0.02700
C1424       C  0.36251375  0.56673504  0.84018097     0.07000
C1425       C  0.36376442  0.58414868  0.81917217    -0.02800
C1426       C  0.34366954  0.57688729  0.79933298    -0.02800
C1427       C  0.32316354  0.55089702  0.79749523     0.07100
C1428       C  0.32363374  0.53269281  0.81641829    -0.03000
Br1429     Br  0.29605092  0.49739178  0.81580061    -0.01500
Br1430     Br  0.34247049  0.51612732  0.86460580    -0.01600
Br1431     Br  0.34449710  0.60431305  0.77698514    -0.01600
Br1432     Br  0.39351149  0.61866742  0.81761032    -0.01600
C1433       C  0.40347597  0.70751060  0.99157452    -0.02700
C1434       C  0.42005684  0.72866026  0.97408000     0.07000
C1435       C  0.44182978  0.72948580  0.96133513    -0.02800
C1436       C  0.44369935  0.70721191  0.96024143    -0.02800
C1437       C  0.42398683  0.68414512  0.97243210     0.07100
C1438       C  0.40568009  0.68529700  0.99122698    -0.03000
Br1439     Br  0.38174614  0.65606594  0.01423559    -0.01500
Br1440     Br  0.37632880  0.70789512  0.01383109    -0.01600
Br1441     Br  0.47326804  0.70846367  0.94228272    -0.01600
Br1442     Br  0.46893718  0.76131337  0.94577808    -0.01600
C1443       C  0.47454925  0.65859163  0.80107359    -0.02700
C1444       C  0.48413374  0.68470086  0.80786588     0.07000
C1445       C  0.49155721  0.69263378  0.83667251    -0.02800
C1446       C  0.48525081  0.67412474  0.85857256    -0.02800
C1447       C  0.46900208  0.64788132  0.85258442     0.07100
C1448       C  0.46582911  0.64000405  0.82337236    -0.03000
Br1449     Br  0.44839085  0.60398846  0.81413399    -0.01500
Br1450     Br  0.47518962  0.64908049  0.76144172    -0.01600
Br1451     Br  0.49957048  0.68387763  0.89652259    -0.01600
Br1452     Br  0.50836890  0.72828643  0.84673571    -0.01600
C1453       C  0.38782650  0.51288349  0.99328334    -0.02700
C1454       C  0.37346538  0.51834347  0.97355792     0.07000
C1455       C  0.34748289  0.49983930  0.96884363    -0.02800
C1456       C  0.33735395  0.98143692  0.99175670    -0.02800
C1457       C  0.35268641  0.97365570  0.00725325     0.07100
C1458       C  0.37992668  0.99009184  0.00665939    -0.03000
Br1459     Br  0.40219812  0.98162007  0.02768802    -0.01500
Br1460     Br  0.42382266  0.53793165  0.99888617    -0.01600
Br1461     Br  0.30017511  0.96364784  0.99608507    -0.01600
Br1462     Br  0.32808657  0.50698740  0.94121194    -0.01600
C1463       C  0.33570594  0.84192543  0.01228466    -0.02700
C1464       C  0.35001173  0.86852601  0.01774901     0.07000
C1465       C  0.37598024  0.88288831  0.00843429    -0.02800
C1466       C  0.38743319  0.87084700  0.99303020    -0.02800
C1467       C  0.37274260  0.84452832  0.98623913     0.07100
C1468       C  0.34696634  0.82998057  0.99636328    -0.03000
Br1469     Br  0.32690093  0.79366845  0.98823598    -0.01500
Br1470     Br  0.30102689  0.82168430  0.02778915    -0.01600
Br1471     Br  0.42366251  0.89002239  0.98279916    -0.01600
Br1472     Br  0.39566941  0.91919032  0.01607627    -0.01600
C1473       C  0.28902160  0.81845730  0.17377159    -0.02700
C1474       C  0.28318811  0.82587756  0.20090420     0.07000
C1475       C  0.28867248  0.85150807  0.20386652    -0.02800
C1476       C  0.29371356  0.86703403  0.17936930    -0.02800
C1477       C  0.29892415  0.85966479  0.15217871     0.07100
C1478       C  0.29783244  0.83576857  0.14990000    -0.03000
Br1479     Br  0.30559743  0.82578065  0.11306460    -0.01500
Br1480     Br  0.28336305  0.78431093  0.16803351    -0.01600
Br1481     Br  0.28915755  0.89635577  0.18290709    -0.01600
Br1482     Br  0.28925431  0.86590301  0.24155727    -0.01600
C1483       C  0.00258558  0.62158117  0.02492602    -0.02700
C1484       C  0.02630802  0.63578509  0.00960028     0.07000
C1485       C  0.02605860  0.63486062  0.97881782    -0.02800
C1486       C  0.49971384  0.61947784  0.96820958    -0.02800
C1487       C  0.47633315  0.61228216  0.98344395     0.07100
C1488       C  0.47713126  0.61585819  0.01405307    -0.03000
Br1489     Br  0.44586195  0.60157682  0.03752207    -0.01500
Br1490     Br  0.00128271  0.61966731  0.06684304    -0.01600
Br1491     Br  0.50021074  0.61270117  0.92722682    -0.01600
Br1492     Br  0.05795848  0.64879126  0.95657677    -0.01600
C1493       C  0.15416627  0.65750821  0.01672650    -0.02700
C1494       C  0.12799982  0.64369931  0.02494291     0.07000
C1495       C  0.11250531  0.61768050  0.01712464    -0.02800
C1496       C  0.12314180  0.60564783  0.00019751    -0.02800
C1497       C  0.14922694  0.61974372  0.99116184     0.07100
C1498       C  0.16478660  0.64558948  0.99997477    -0.03000
Br1499     Br  0.20051057  0.66555891  0.98809273    -0.01500
Br1500     Br  0.17529848  0.69318373  0.02787953    -0.01600
Br1501     Br  0.10213244  0.56995226  0.98987472    -0.01600
Br1502     Br  0.07640049  0.59912141  0.02812432    -0.01600
C1503       C  0.19391169  0.77871927  0.07035562    -0.02700
C1504       C  0.18107912  0.76870677  0.04388020     0.07000
C1505       C  0.19396280  0.78100096  0.01792020    -0.02800
C1506       C  0.21632831  0.80575059  0.01891097    -0.02800
C1507       C  0.22662888  0.81764700  0.04604010     0.07100
C1508       C  0.21641134  0.80294713  0.07151964    -0.03000
Br1509     Br  0.23335973  0.81534825  0.10839474    -0.01500
Br1510     Br  0.18155155  0.75859134  0.10521082    -0.01600
Br1511     Br  0.23137822  0.82338655  0.98288850    -0.01600
Br1512     Br  0.18172211  0.76389720  0.98117939    -0.01600
C1513       C  0.16142826  0.70392546  0.15148307    -0.02700
C1514       C  0.14002951  0.70777031  0.15162693     0.07000
C1515       C  0.13753481  0.72232387  0.17399992    -0.02800
C1516       C  0.15754537  0.73572571  0.19382562    -0.02800
C1517       C  0.17910041  0.73157343  0.19471045     0.07100
C1518       C  0.18063029  0.71531978  0.17322586    -0.03000
Br1519     Br  0.21068439  0.71147329  0.17052235    -0.01500
Br1520     Br  0.16549677  0.68491459  0.12003215    -0.01600
Br1521     Br  0.15475573  0.76132539  0.21714638    -0.01600
Br1522     Br  0.10623286  0.72433373  0.17703102    -0.01600
C1523       C  0.12914615  0.72785435  0.28691069    -0.02700
C1524       C  0.14525301  0.74379969  0.30908683     0.07000
C1525       C  0.13420411  0.75062822  0.33199134    -0.02800
C1526       C  0.10975215  0.74826470  0.32843317    -0.02800
C1527       C  0.09591258  0.73744514  0.30243986     0.07100
C1528       C  0.10444021  0.72460587  0.28359954    -0.03000
Br1529     Br  0.08296200  0.70346742  0.25254609    -0.01500
Br1530     Br  0.14087626  0.71019794  0.26144840    -0.01600
Br1531     Br  0.09754098  0.76272897  0.35785226    -0.01600
Br1532     Br  0.15239314  0.76294203  0.36790560    -0.01600
C1533       C  0.02017472  0.69742961  0.13304963    -0.02700
C1534       C  0.03429193  0.68490549  0.13748988     0.07000
C1535       C  0.03404044  0.67536239  0.16541731    -0.02800
C1536       C  0.02358848  0.68234441  0.18900820    -0.02800
C1537       C  0.01560016  0.70042087  0.18516443     0.07100
C1538       C  0.01155472  0.70593374  0.15683933    -0.03000
Br1539     Br  0.52103126  0.75095630  0.15104378    -0.01500
Br1540     Br  0.01369776  0.70371467  0.09433527    -0.01600
Br1541     Br  0.01960874  0.66723004  0.22655318    -0.01600
Br1542     Br  0.05056444  0.65555427  0.17232365    -0.01600
C1543       C  0.00210172  0.86932945  0.96804345    -0.02700
C1544       C  0.47695182  0.85330542  0.98669169     0.07000
C1545       C  0.47860708  0.85514227  0.01738785    -0.02800
C1546       C  0.00596448  0.86594193  0.02851705    -0.02800
C1547       C  0.02847097  0.87721492  0.01127248     0.07100
C1548       C  0.02652039  0.87993915  0.98111523    -0.03000
Br1549     Br  0.05744567  0.89801304  0.95740928    -0.01500
Br1550     Br  0.00040860  0.87492004  0.92712535    -0.01600
Br1551     Br  0.00846853  0.86674108  0.07018682    -0.01600
Br1552     Br  0.44771850  0.84138638  0.04131391    -0.01600
C1553       C  0.15085670  0.49837647  0.96724365    -0.02700
C1554       C  0.15060472  0.51900959  0.98133118     0.07000
C1555       C  0.13827802  0.51507421  0.00858746    -0.02800
C1556       C  0.13011608  0.99004757  0.02451746    -0.02800
C1557       C  0.13172545  0.96992894  0.01042092     0.07100
C1558       C  0.14512191  0.97508523  0.98335596    -0.03000
Br1559     Br  0.15116775  0.94987014  0.96426891    -0.01500
Br1560     Br  0.16610426  0.50340594  0.92890702    -0.01600
Br1561     Br  0.10839752  0.98338161  0.05845149    -0.01600
Br1562     Br  0.13742796  0.54328378  0.02759241    -0.01600
C1563       C  0.06187582  0.78532082  0.01765941    -0.02700
C1564       C  0.08471444  0.80700505  0.00774025     0.07000
C1565       C  0.10392084  0.80360786  0.99402007    -0.02800
C1566       C  0.10284404  0.77987959  0.99589269    -0.02800
C1567       C  0.08254315  0.75973318  0.01163430     0.07100
C1568       C  0.06057547  0.76142125  0.01866187    -0.03000
Br1569     Br  0.02873290  0.73071801  0.02745318    -0.01500
Br1570     Br  0.03341028  0.78886769  0.03174783    -0.01600
Br1571     Br  0.13042205  0.77615728  0.97917691    -0.01600
Br1572     Br  0.13366175  0.83213545  0.97666535    -0.01600
C1573       C  0.07151693  0.84972799  0.16471960    -0.02700
C1574       C  0.05780044  0.84396769  0.13855159     0.07000
C1575       C  0.03231294  0.82275013  0.13789521    -0.02800
C1576       C  0.02189201  0.80613293  0.16225196    -0.02800
C1577       C  0.03736263  0.81007432  0.18681547     0.07100
C1578       C  0.06117124  0.83330509  0.18875123    -0.03000
Br1579     Br  0.58039176  0.84982581  0.23151347    -0.01500
Br1580     Br  0.10562689  0.87938537  0.16727565    -0.01600
Br1581     Br  0.98658646  0.77851717  0.16203284    -0.01600
Br1582     Br  0.01241819  0.81540658  0.10316737    -0.01600
C1583       C  0.19604432  0.90263256  0.99382773    -0.02700
C1584       C  0.18507163  0.91074002  0.01529059     0.07000
C1585       C  0.20102985  0.92816790  0.03627814    -0.02800
C1586       C  0.22546011  0.93113080  0.04116827    -0.02800
C1587       C  0.23362436  0.91646915  0.02474467     0.07100
C1588       C  0.22013208  0.90465115  0.99873257    -0.03000
Br1589     Br  0.23263798  0.88971664  0.97025085    -0.01500
Br1590     Br  0.17940915  0.89206033  0.95690054    -0.01600
Br1591     Br  0.24703616  0.95512904  0.07022599    -0.01600
Br1592     Br  0.18921265  0.94829650  0.05704142    -0.01600
C1593       C  0.27244645  0.86883910  0.31975837    -0.02700
C1594       C  0.24818524  0.84847033  0.32840240     0.07000
C1595       C  0.22928483  0.85381835  0.33879331    -0.02800
C1596       C  0.23288254  0.87851291  0.33573032    -0.02800
C1597       C  0.25440015  0.89710285  0.31966442     0.07100
C1598       C  0.27524380  0.89303394  0.31396081    -0.03000
Br1599     Br  0.30704025  0.92024619  0.29812797    -0.01500
Br1600     Br  0.30096053  0.86277536  0.31533635    -0.01600
Br1601     Br  0.20639319  0.88519720  0.35022206    -0.01600
Br1602     Br  0.19685350  0.82637642  0.35298154    -0.01600
C1603       C  0.32849645  0.95929155  0.16842740    -0.02700
C1604       C  0.31951228  0.96237044  0.14160183     0.07000
C1605       C  0.30960030  0.97896806  0.14001677    -0.02800
C1606       C  0.30227399  0.98666852  0.16560368    -0.02800
C1607       C  0.30381049  0.97639041  0.19249454     0.07100
C1608       C  0.31964033  0.96530324  0.19411961    -0.03000
Br1609     Br  0.32836268  0.95764235  0.23120681    -0.01500
Br1610     Br  0.35161840  0.94577208  0.16980230    -0.01600
Br1611     Br  0.28866965  0.00952552  0.16300481    -0.01600
Br1612     Br  0.30702164  0.99126858  0.10269229    -0.01600
C1613       C  0.15994182  0.85715445  0.28349426    -0.02700
C1614       C  0.16121686  0.88067944  0.29047288     0.07000
C1615       C  0.13865981  0.88012482  0.30130277    -0.02800
C1616       C  0.11455755  0.85691415  0.30103977    -0.02800
C1617       C  0.11310982  0.83417200  0.29067348     0.07100
C1618       C  0.13613005  0.83417792  0.28368831    -0.03000
Br1619     Br  0.13540379  0.80234987  0.27508319    -0.01500
Br1620     Br  0.19090998  0.85555502  0.27494222    -0.01600
Br1621     Br  0.08352216  0.85646044  0.31378691    -0.01600
Br1622     Br  0.14025081  0.91072685  0.31634100    -0.01600
C1623       C  0.18024235  0.95676552  0.17482910    -0.02700
C1624       C  0.20057356  0.95148420  0.17679821     0.07000
C1625       C  0.20393161  0.93744354  0.15429983    -0.02800
C1626       C  0.18501801  0.92509434  0.13284648    -0.02800
C1627       C  0.16308041  0.92863004  0.13166471     0.07100
C1628       C  0.16138333  0.94517002  0.15283479    -0.03000
Br1629     Br  0.13200141  0.95026080  0.15485302    -0.01500
Br1630     Br  0.16905496  0.47097635  0.21645081    -0.01600
Br1631     Br  0.18983034  0.90189907  0.10742421    -0.01600
Br1632     Br  0.23560702  0.93601293  0.15223583    -0.01600
C1633       C  0.30008452  0.83103165  0.63454283    -0.02700
C1634       C  0.31425125  0.85491167  0.64928007     0.07000
C1635       C  0.31575319  0.85436812  0.68001639    -0.02800
C1636       C  0.30536313  0.83080003  0.69518664    -0.02800
C1637       C  0.29235752  0.80722930  0.68021326     0.07100
C1638       C  0.28924586  0.80757472  0.64990838    -0.03000
Br1639     Br  0.26898812  0.77559733  0.62918637    -0.01500
Br1640     Br  0.29517032  0.82942491  0.59306307    -0.01600
Br1641     Br  0.31005738  0.83087495  0.73653943    -0.01600
Br1642     Br  0.33008507  0.88562318  0.70237810    -0.01600
C1643       C  0.31759575  0.96209604  0.67559492    -0.02700
C1644       C  0.31671113  0.95921266  0.64498282     0.07000
C1645       C  0.30552498  0.97089329  0.62871235    -0.02800
C1646       C  0.29757061  0.98682487  0.64245956    -0.02800
C1647       C  0.29766238  0.98894414  0.67314862     0.07100
C1648       C  0.30810900  0.97673032  0.68950329    -0.03000
Br1649     Br  0.31900764  0.49050868  0.72855597    -0.01500
Br1650     Br  0.33009686  0.94463884  0.69941499    -0.01600
Br1651     Br  0.28786337  0.00652979  0.61813366    -0.01600
Br1652     Br  0.30017998  0.96509584  0.58741243    -0.01600
C1653       C  0.31094320  0.77897735  0.35002975    -0.02700
C1654       C  0.30845046  0.78734369  0.32235234     0.07000
C1655       C  0.33038588  0.80777305  0.30895608    -0.02800
C1656       C  0.35442245  0.82012079  0.32326827    -0.02800
C1657       C  0.35671823  0.81275593  0.35178153     0.07100
C1658       C  0.33473873  0.79155292  0.36471267    -0.03000
Br1659     Br  0.33603544  0.77976180  0.40324342    -0.01500
Br1660     Br  0.28151620  0.74992601  0.36816875    -0.01600
Br1661     Br  0.38418790  0.84635822  0.30250678    -0.01600
Br1662     Br  0.32712669  0.82020413  0.27169021    -0.01600
C1663       C  0.44840662  0.78752013  0.35342269    -0.02700
C1664       C  0.45634791  0.81350773  0.34776437     0.07000
C1665       C  0.47570650  0.82684956  0.32620693    -0.02800
C1666       C  0.48753104  0.81455411  0.31177787    -0.02800
C1667       C  0.48076685  0.78934249  0.31925830     0.07100
C1668       C  0.46148093  0.77608418  0.34037683    -0.03000
Br1669     Br  0.96232136  0.74530224  0.35376529    -0.01500
Br1670     Br  0.92608619  0.76695285  0.38138291    -0.01600
Br1671     Br  0.51405627  0.83250039  0.28266547    -0.01600
Br1672     Br  0.48716684  0.86213586  0.31665110    -0.01600
C1673       C  0.35418447  0.85037089  0.47110827    -0.02700
C1674       C  0.36940161  0.84132429  0.48368733     0.07000
C1675       C  0.36955153  0.83963494  0.51410506    -0.02800
C1676       C  0.35866794  0.85118337  0.53159974    -0.02800
C1677       C  0.34796521  0.86481173  0.51870774     0.07100
C1678       C  0.34376322  0.86241604  0.48856909    -0.03000
Br1679     Br  0.32578422  0.87749653  0.47094431    -0.01500
Br1680     Br  0.35052251  0.84909555  0.42954549    -0.01600
Br1681     Br  0.36137759  0.85138259  0.57326859    -0.01600
Br1682     Br  0.38639568  0.82321879  0.53160206    -0.01600
C1683       C  0.21906120  0.67442283  0.31886083    -0.02700
C1684       C  0.20409410  0.68618303  0.31487319     0.07000
C1685       C  0.17783328  0.67303600  0.32355650    -0.02800
C1686       C  0.16635091  0.64810086  0.33496747    -0.02800
C1687       C  0.18153504  0.63668395  0.34013998     0.07100
C1688       C  0.20790244  0.64987229  0.33170341    -0.03000
Br1689     Br  0.22872020  0.63417450  0.33689307    -0.01500
Br1690     Br  0.25546374  0.69299163  0.30930543    -0.01600
Br1691     Br  0.12978793  0.63038408  0.34453718    -0.01600
Br1692     Br  0.15751071  0.68955314  0.32173625    -0.01600
C1693       C  0.16448182  0.50826899  0.33124550    -0.02700
C1694       C  0.18025772  0.53253458  0.34451635     0.07000
C1695       C  0.20750214  0.54398181  0.34237556    -0.02800
C1696       C  0.21863553  0.53158752  0.32698939    -0.02800
C1697       C  0.20288275  0.50749353  0.31400748     0.07100
C1698       C  0.17583087  0.49606088  0.31582796    -0.03000
Br1699     Br  0.15826346  0.97004986  0.28390193    -0.01500
Br1700     Br  0.12725708  0.49030717  0.33579525    -0.01600
Br1701     Br  0.25578834  0.54736757  0.32425950    -0.01600
Br1702     Br  0.23023358  0.57673329  0.36020345    -0.01600
C1703       C  0.04736795  0.96781684  0.35946434    -0.02700
C1704       C  0.06324445  0.97689952  0.38430900     0.07000
C1705       C  0.05694960  0.96053452  0.40844678    -0.02800
C1706       C  0.03305132  0.93775198  0.41003625    -0.02800
C1707       C  0.01566955  0.93006043  0.38664312     0.07100
C1708       C  0.02367874  0.94434189  0.36062425    -0.03000
Br1709     Br  0.50002028  0.93471133  0.33194832    -0.01500
Br1710     Br  0.05487229  0.48944156  0.32753523    -0.01600
Br1711     Br  0.02408408  0.91833467  0.44561366    -0.01600
Br1712     Br  0.08081830  0.96921562  0.44004569    -0.01600
C1713       C  0.04037011  0.83214585  0.63168117    -0.02700
C1714       C  0.04452184  0.85534413  0.64503810     0.07000
C1715       C  0.03756613  0.85438658  0.67499164    -0.02800
C1716       C  0.02582137  0.83090982  0.69033669    -0.02800
C1717       C  0.02086089  0.80807571  0.67648307     0.07100
C1718       C  0.02861082  0.80885700  0.64736389    -0.03000
Br1719     Br  0.54122106  0.78490120  0.64157361    -0.01500
Br1720     Br  0.57605334  0.84245414  0.61294017    -0.01600
Br1721     Br  0.01564839  0.82967415  0.73050650    -0.01600
Br1722     Br  0.04454456  0.88482232  0.69660482    -0.01600
C1723       C  0.14475581  0.95474074  0.67539837    -0.02700
C1724       C  0.14501355  0.95365608  0.64455059     0.07000
C1725       C  0.16873738  0.96064233  0.63023813    -0.02800
C1726       C  0.19150679  0.96949062  0.64626426    -0.02800
C1727       C  0.19190989  0.97416803  0.67641064     0.07100
C1728       C  0.16803489  0.96495024  0.69115274    -0.03000
Br1729     Br  0.16659521  0.96500318  0.73295099    -0.01500
Br1730     Br  0.11265813  0.94149478  0.69698821    -0.01600
Br1731     Br  0.21908643  0.48349089  0.62065621    -0.01600
Br1732     Br  0.17145665  0.95999021  0.58835902    -0.01600
C1733       C  0.46519996  0.90247870  0.58654758    -0.02700
C1734       C  0.48264872  0.91427665  0.60942224     0.07000
C1735       C  0.47469089  0.92304162  0.63384519    -0.02800
C1736       C  0.45100578  0.92295635  0.63337985    -0.02800
C1737       C  0.43597541  0.91567211  0.60778108     0.07100
C1738       C  0.44300796  0.90455802  0.58464766    -0.03000
Br1739     Br  0.42438453  0.89384574  0.54849945    -0.01500
Br1740     Br  0.47188911  0.88369243  0.55687011    -0.01600
Br1741     Br  0.44110989  0.93517752  0.66735941    -0.01600
Br1742     Br  0.99771904  0.93582253  0.66379176    -0.01600
C1743       C  0.14670951  0.00183901  0.52276547    -0.02700
C1744       C  0.13264195  0.97661851  0.51183978     0.07000
C1745       C  0.13429124  0.97296603  0.48185706    -0.02800
C1746       C  0.14140062  0.49622906  0.46550060    -0.02800
C1747       C  0.14903426  0.52074621  0.47693506     0.07100
C1748       C  0.15190706  0.52419759  0.50716624    -0.03000
Br1749     Br  0.16844253  0.55810295  0.52308191    -0.01500
Br1750     Br  0.15234064  0.00706823  0.56389904    -0.01600
Br1751     Br  0.14277415  0.49217517  0.42410697    -0.01600
Br1752     Br  0.12256736  0.93910606  0.46728533    -0.01600
C1753       C  0.49861069  0.84839388  0.52520874    -0.02700
C1754       C  0.02545954  0.86658450  0.51186310     0.07000
C1755       C  0.02890112  0.86668038  0.48164563    -0.02800
C1756       C  0.00720255  0.85536804  0.46336371    -0.02800
C1757       C  0.47965304  0.84377031  0.47759152     0.07100
C1758       C  0.47668903  0.83747495  0.50722895    -0.03000
Br1759     Br  0.44273829  0.81590072  0.52329727    -0.01500
Br1760     Br  0.49537577  0.84094587  0.56611439    -0.01600
Br1761     Br  0.01154609  0.85619646  0.42181385    -0.01600
Br1762     Br  0.06317983  0.88294086  0.46560593    -0.01600
C1763       C  0.17566713  0.68144162  0.67661932    -0.02700
C1764       C  0.18993858  0.70839503  0.67854743     0.07000
C1765       C  0.18260543  0.72296347  0.66177309    -0.02800
C1766       C  0.16074870  0.71065710  0.64368904    -0.02800
C1767       C  0.14529662  0.68338522  0.64307854     0.07100
C1768       C  0.15339056  0.66892295  0.65940416    -0.03000
Br1769     Br  0.13584084  0.63187079  0.65642625    -0.01500
Br1770     Br  0.18783192  0.66161373  0.69627382    -0.01600
Br1771     Br  0.15319110  0.73190251  0.61943809    -0.01600
Br1772     Br  0.20327461  0.75993307  0.66295865    -0.01600
C1773       C  0.04698119  0.72098904  0.66610533    -0.02700
C1774       C  0.02066265  0.70695769  0.67404888     0.07000
C1775       C  0.00599682  0.68070485  0.66666832    -0.02800
C1776       C  0.01758079  0.66843603  0.65191895    -0.02800
C1777       C  0.04380346  0.68267169  0.64291002     0.07100
C1778       C  0.05842854  0.70903857  0.65030181    -0.03000
Br1779     Br  0.09462536  0.72880016  0.64051823    -0.01500
Br1780     Br  0.06717645  0.75688385  0.67622119    -0.01600
Br1781     Br  0.99693132  0.63198273  0.64421963    -0.01600
Br1782     Br  0.47179171  0.66120888  0.68191790    -0.01600
C1783       C  0.47577311  0.54834497  0.62649567    -0.02700
C1784       C  0.48489764  0.56222033  0.60002494     0.07000
C1785       C  0.46797850  0.55350065  0.57591698    -0.02800
C1786       C  0.44442339  0.53000224  0.57713054    -0.02800
C1787       C  0.43707223  0.51433959  0.60230348     0.07100
C1788       C  0.45196968  0.52478551  0.62764705    -0.03000
Br1789     Br  0.44482123  0.00345437  0.66154436    -0.01500
Br1790     Br  0.99175997  0.56012726  0.66143492    -0.01600
Br1791     Br  0.42251319  0.51985378  0.54330814    -0.01600
Br1792     Br  0.47640571  0.57286944  0.53998932    -0.01600
C1793       C  0.07519156  0.54688765  0.62733402    -0.02700
C1794       C  0.08202412  0.56174467  0.60162421     0.07000
C1795       C  0.09069690  0.55359407  0.57735065    -0.02800
C1796       C  0.08799862  0.52909161  0.57666969    -0.02800
C1797       C  0.07865152  0.51283306  0.60143697     0.07100
C1798       C  0.07353182  0.52259710  0.62726957    -0.03000
Br1799     Br  0.05836915  0.00036660  0.65939116    -0.01500
Br1800     Br  0.06673083  0.55863810  0.66272617    -0.01600
Br1801     Br  0.09553922  0.51824179  0.53989173    -0.01600
Br1802     Br  0.10646954  0.57589062  0.54417437    -0.01600
C1803       C  0.15973305  0.63120581  0.50029836    -0.02700
C1804       C  0.15509543  0.63068292  0.47050041     0.07000
C1805       C  0.14573092  0.64633028  0.46018939    -0.02800
C1806       C  0.13438357  0.65609375  0.47975022    -0.02800
C1807       C  0.13330262  0.65082022  0.50957182     0.07100
C1808       C  0.14867467  0.64109829  0.51997325    -0.03000
Br1809     Br  0.15324649  0.64024314  0.56112304    -0.01500
Br1810     Br  0.18164681  0.61894915  0.51347715    -0.01600
Br1811     Br  0.11957591  0.67563798  0.46589821    -0.01600
Br1812     Br  0.14877788  0.65414783  0.41947971    -0.01600
C1813       C  0.43921503  0.64907068  0.34405069    -0.02700
C1814       C  0.45422640  0.63750243  0.34948102     0.07000
C1815       C  0.47897915  0.64797917  0.33659732    -0.02800
C1816       C  0.48882446  0.67006352  0.31914638    -0.02800
C1817       C  0.47421135  0.68213901  0.31427749     0.07100
C1818       C  0.44890849  0.67086873  0.32586243    -0.03000
Br1819     Br  0.42733565  0.68485799  0.31640733    -0.01500
Br1820     Br  0.40544500  0.63522562  0.36182142    -0.01600
Br1821     Br  0.02456557  0.68448201  0.30527903    -0.01600
Br1822     Br  0.99957734  0.63144246  0.34401809    -0.01600
C1823       C  0.33374300  0.53270290  0.37032111    -0.02700
C1824       C  0.35670509  0.53813075  0.35529544     0.07000
C1825       C  0.35578617  0.53339750  0.32513147    -0.02800
C1826       C  0.33210115  0.52229459  0.31045325    -0.02800
C1827       C  0.30907087  0.51672030  0.32540336     0.07100
C1828       C  0.31015255  0.52231109  0.35543141    -0.03000
Br1829     Br  0.27937781  0.51583338  0.37675258    -0.01500
Br1830     Br  0.33384416  0.53793898  0.41179711    -0.01600
Br1831     Br  0.33145133  0.51276191  0.27025753    -0.01600
Br1832     Br  0.38707989  0.54284497  0.30309346    -0.01600
C1833       C  0.40931786  0.96347235  0.38457077    -0.02700
C1834       C  0.42964275  0.98532379  0.39796604     0.07000
C1835       C  0.44924704  0.98331496  0.41211579    -0.02800
C1836       C  0.44743537  0.95940682  0.41523796    -0.02800
C1837       C  0.42687949  0.93734145  0.40250058     0.07100
C1838       C  0.40802900  0.93945561  0.38670998    -0.03000
Br1839     Br  0.37999173  0.90928615  0.36924604    -0.01500
Br1840     Br  0.38348150  0.96644399  0.36337932    -0.01600
Br1841     Br  0.47384425  0.95749490  0.43676712    -0.01600
Br1842     Br  0.48083090  0.51351579  0.41963940    -0.01600
C1843       C  0.50572907  0.64619785  0.46619732    -0.02700
C1844       C  0.48119964  0.63048228  0.47897323     0.07000
C1845       C  0.47862824  0.63077192  0.50923653    -0.02800
C1846       C  0.00055483  0.64199832  0.52572896    -0.02800
C1847       C  0.02513521  0.65122673  0.51282929     0.07100
C1848       C  0.02797404  0.65628351  0.48289402    -0.03000
Br1849     Br  0.06177066  0.67557084  0.46590412    -0.01500
Br1850     Br  0.50841190  0.65162768  0.42488316    -0.01600
Br1851     Br  0.99718539  0.64049618  0.56725630    -0.01600
Br1852     Br  0.44476107  0.61316072  0.52670967    -0.01600
C1853       C  0.36935695  0.52062597  0.51263773    -0.02700
C1854       C  0.37308739  0.51884259  0.48271841     0.07000
C1855       C  0.36173320  0.99489351  0.46753376    -0.02800
C1856       C  0.35004806  0.97292143  0.48538221    -0.02800
C1857       C  0.35176050  0.97550529  0.51573759     0.07100
C1858       C  0.36162604  0.00021419  0.52804775    -0.03000
Br1859     Br  0.36450460  0.00455650  0.56957167    -0.01500
Br1860     Br  0.38157539  0.55386715  0.52981692    -0.01600
Br1861     Br  0.33407779  0.93924525  0.46844095    -0.01600
Br1862     Br  0.36333358  0.49162942  0.42825981    -0.01600
C1863       C  0.05777469  0.59092254  0.40475276    -0.02700
C1864       C  0.06280834  0.57818106  0.38189781     0.07000
C1865       C  0.04541073  0.56871157  0.35832080    -0.02800
C1866       C  0.02184340  0.56887255  0.35987528    -0.02800
C1867       C  0.01521598  0.57769773  0.38526630     0.07100
C1868       C  0.03387601  0.58980108  0.40701422    -0.03000
Br1869     Br  0.02657422  0.60387177  0.44122234    -0.01500
Br1870     Br  0.08325824  0.60985852  0.43389347    -0.01600
Br1871     Br  0.99775539  0.55468314  0.32826568    -0.01600
Br1872     Br  0.05229092  0.55374772  0.32464128    -0.01600
Fe1873     Fe  0.94856711  0.05535533  0.43838862     1.65800
Fe1874     Fe  0.93746986  0.05761844  0.36736600     1.73200
Fe1875     Fe  0.91546251  0.08392972  0.41766647     1.54400
O1876       O  0.89043612  0.05360055  0.44472380    -0.82500
O1877       O  0.94156264  0.09197076  0.35192841    -0.80800
O1878       O  0.91808686  0.04551069  0.46719875    -0.85000
O1879       O  0.96914829  0.09207630  0.45368742    -0.79900
O1880       O  0.88844506  0.06582450  0.38522094    -0.81600
O1881       O  0.97728406  0.07558442  0.36981196    -0.84400
C1882       C  0.96276351  0.10872673  0.45919717     0.96400
C1883       C  0.89527228  0.04099791  0.46303526     1.03800
O1884       O  0.93409646  0.06594254  0.40765672    -1.13400
O1885       O  0.93449144  0.02224929  0.37704439    -0.75800
O1886       O  0.92951771  0.01791199  0.42492924    -0.79300
O1887       O  0.94123574  0.10608881  0.45111350    -0.80000
C1888       C  0.93030839  0.00920965  0.40010718     0.95300
O1889       O  0.98075493  0.06313500  0.41389541    -0.77900
O1890       O  0.89800169  0.03898722  0.36226603    -0.83100
C1891       C  0.94360038  0.11231387  0.36312354     0.97900
C1892       C  0.88278924  0.04745620  0.36759227     1.03800
O1893       O  0.93788918  0.11368188  0.38951576    -0.78800
C1894       C  0.99032075  0.07261394  0.38925353     1.02100
Fe1895     Fe  0.56442837  0.12487255  0.62240222     1.65800
Fe1896     Fe  0.55628867  0.10927436  0.55049584     1.73200
Fe1897     Fe  0.58921479  0.17268252  0.57075049     1.54400
O1898       O  0.56905385  0.18192754  0.60138188    -0.82500
O1899       O  0.58999174  0.12691500  0.52644093    -0.80800
O1900       O  0.55297428  0.15068854  0.63420010    -0.85000
O1901       O  0.60189310  0.15098003  0.63364174    -0.79900
O1902       O  0.56140214  0.16884512  0.54093328    -0.81600
O1903       O  0.56948426  0.08738224  0.56935886    -0.84400
C1904       C  0.62063985  0.17147440  0.62339112     0.96400
C1905       C  0.55614408  0.17170875  0.62450919     1.03800
O1906       O  0.57003310  0.13566026  0.58126929    -1.13400
O1907       O  0.52121806  0.08731155  0.57053221    -0.75800
O1908       O  0.52561652  0.09743672  0.61709615    -0.79300
O1909       O  0.61887628  0.18121943  0.59980296    -0.80000
C1910       C  0.51194379  0.08419946  0.59595441     0.95300
O1911       O  0.57565049  0.09758663  0.61593534    -0.77900
O1912       O  0.54022008  0.12741486  0.52869464    -0.83100
C1913       C  0.60991602  0.14899817  0.52464961     0.97900
C1914       C  0.54340872  0.14983299  0.52756556     1.03800
O1915       O  0.61228212  0.16815254  0.53908865    -0.78800
C1916       C  0.57587111  0.08436018  0.59447185     1.02100
Fe1917     Fe  0.55317448  0.43905761  0.55534599     1.65800
Fe1918     Fe  0.56230458  0.43407347  0.62723722     1.73200
Fe1919     Fe  0.58680044  0.40975356  0.57592772     1.54400
O1920       O  0.55936375  0.38513121  0.54567192    -0.82500
O1921       O  0.60022351  0.44676694  0.63820880    -0.80800
O1922       O  0.53871380  0.40534570  0.53247046    -0.85000
O1923       O  0.58750099  0.45639368  0.53251165    -0.79900
O1924       O  0.56716192  0.38111185  0.60663346    -0.81600
O1925       O  0.57294448  0.47251579  0.62040106    -0.84400
C1926       C  0.60768191  0.45461444  0.53087862     0.96400
C1927       C  0.54183039  0.38611951  0.53149289     1.03800
O1928       O  0.56752037  0.42766383  0.58625368    -1.13400
O1929       O  0.52357512  0.42202409  0.62206113    -0.75800
O1930       O  0.51788727  0.42418697  0.57511248    -0.79300
O1931       O  0.61000030  0.43762408  0.54465196    -0.80000
C1932       C  0.50922080  0.41935456  0.60079589     0.95300
O1933       O  0.56402693  0.47377393  0.57424668    -0.77900
O1934       O  0.55077697  0.39660082  0.63901130    -0.83100
C1935       C  0.61807676  0.44310365  0.62877249     0.97900
C1936       C  0.55430455  0.37864009  0.62973059     1.03800
O1937       O  0.61554049  0.43020672  0.60583828    -0.78800
C1938       C  0.57125641  0.48447174  0.59870387     1.02100
Fe1939     Fe  0.62378152  0.05647499  0.36003273     1.65800
Fe1940     Fe  0.60864863  0.05190357  0.43231387     1.73200
Fe1941     Fe  0.67216356  0.08134615  0.41109731     1.54400
O1942       O  0.67958162  0.05846011  0.38334054    -0.82500
O1943       O  0.62746554  0.08717280  0.45281080    -0.80800
O1944       O  0.64971932  0.04480889  0.34910682    -0.85000
O1945       O  0.64989083  0.09335151  0.34735109    -0.79900
O1946       O  0.66736765  0.05512079  0.44409851    -0.81600
O1947       O  0.58683224  0.06424322  0.41178482    -0.84400
C1948       C  0.67125331  0.11151126  0.35644693     0.96400
C1949       C  0.66974325  0.04629931  0.35996174     1.03800
O1950       O  0.63490775  0.06326313  0.40107511    -1.13400
O1951       O  0.58654408  0.01603554  0.41460266    -0.75800
O1952       O  0.59644550  0.01823999  0.36774325    -0.79300
O1953       O  0.68190031  0.10941464  0.37918492    -0.80000
C1954       C  0.58357774  0.00564589  0.38984309     0.95300
O1955       O  0.59619877  0.06776559  0.36488863    -0.77900
O1956       O  0.62599512  0.03669791  0.45731608    -0.83100
C1957       C  0.65015405  0.10652760  0.45315641     0.97900
C1958       C  0.64810962  0.03892967  0.45923745     1.03800
O1959       O  0.66906077  0.10696640  0.43966976    -0.78800
C1960       C  0.58352312  0.06942597  0.38626606     1.02100
Fe1961     Fe  0.93625371  0.37261595  0.37061308     1.65800
Fe1962     Fe  0.94529910  0.38516126  0.44211928     1.73200
Fe1963     Fe  0.91428691  0.32401177  0.41904423     1.54400
O1964       O  0.88747939  0.31501996  0.38559424    -0.82500
O1965       O  0.96687329  0.36995645  0.45610136    -0.80800
O1966       O  0.89688149  0.35153533  0.36392993    -0.85000
O1967       O  0.94124131  0.34293696  0.35368945    -0.79900
O1968       O  0.88824951  0.32730586  0.44708071    -0.81600
O1969       O  0.97718515  0.41096916  0.41839236    -0.84400
C1970       C  0.94505729  0.32598196  0.36510775     0.96400
C1971       C  0.88172000  0.32770379  0.36818662     1.03800
O1972       O  0.93177490  0.36053345  0.41055748    -1.13400
O1973       O  0.92508765  0.40250208  0.42932072    -0.75800
O1974       O  0.93261427  0.40457810  0.38169595    -0.79300
O1975       O  0.93911021  0.31936467  0.39143402    -0.80000
C1976       C  0.92710737  0.41271129  0.40479019     0.95300
O1977       O  0.97596998  0.39432752  0.37500331    -0.77900
O1978       O  0.91534284  0.36298903  0.47076196    -0.83100
C1979       C  0.96104908  0.34703310  0.46087377     0.97900
C1980       C  0.89291679  0.34383970  0.46696603     1.03800
O1981       O  0.93968059  0.32787969  0.45271626    -0.78800
C1982       C  0.98799155  0.41084808  0.39462459     1.02100
Fe1983     Fe  0.87493422  0.43502395  0.62918549     1.65800
Fe1984     Fe  0.88918779  0.44201623  0.55797147     1.73200
Fe1985     Fe  0.82659354  0.41083481  0.57954057     1.54400
O1986       O  0.81791230  0.38033768  0.60720836    -0.82500
O1987       O  0.86786452  0.44969615  0.52938180    -0.80800
O1988       O  0.84601482  0.39825644  0.64293559    -0.85000
O1989       O  0.85217887  0.45113797  0.63938066    -0.79900
O1990       O  0.83203478  0.38939034  0.54587678    -0.81600
O1991       O  0.90464692  0.47849122  0.57305429    -0.84400
C1992       C  0.82950528  0.44552249  0.63195113     0.96400
C1993       C  0.82633155  0.37885033  0.63187817     1.03800
O1994       O  0.86331512  0.42896729  0.58913946    -1.13400
O1995       O  0.91602793  0.43723147  0.58023364    -0.75800
O1996       O  0.89814763  0.41897998  0.62212101    -0.79300
O1997       O  0.81719851  0.42911888  0.61215123    -0.80000
C1998       C  0.91514960  0.42465355  0.60244311     0.95300
O1999       O  0.90611654  0.47262473  0.61997000    -0.77900
O2000       O  0.87479516  0.40602852  0.54193960    -0.83100
C2001       C  0.84955613  0.45396764  0.53406549     0.97900
C2002       C  0.85191171  0.38834333  0.53704847     1.03800
O2003       O  0.83211176  0.44131701  0.55290197    -0.78800
C2004       C  0.91376192  0.48732712  0.59774435     1.02100
Fe2005     Fe  0.72941241  0.45327860  0.31588307     1.65800
Fe2006     Fe  0.73174205  0.42684550  0.25146706     1.73200
Fe2007     Fe  0.75000788  0.98785635  0.25482054     1.54400
O2008       O  0.72729181  0.99918106  0.27730358    -0.82500
O2009       O  0.76625125  0.44495632  0.22899256    -0.80800
O2010       O  0.71423174  0.47713832  0.31606745    -0.85000
O2011       O  0.76602160  0.48297174  0.32413793    -0.79900
O2012       O  0.72361087  0.47604651  0.22176119    -0.81600
O2013       O  0.74879808  0.41459642  0.28145908    -0.84400
C2014       C  0.78442603  0.00066673  0.30966657     0.96400
C2015       C  0.71723846  0.99477066  0.30242896     1.03800
O2016       O  0.73752870  0.45697248  0.27374684    -1.13400
O2017       O  0.69632496  0.40446469  0.27035775    -0.75800
O2018       O  0.69236682  0.42223593  0.31118525    -0.79300
O2019       O  0.78006016  0.00635253  0.28455220    -0.80000
C2020       C  0.68372894  0.40402601  0.29283446     0.95300
O2021       O  0.74257511  0.42832171  0.32395246    -0.77900
O2022       O  0.71361107  0.43506913  0.21912654    -0.83100
C2023       C  0.77955152  0.46714921  0.21818680     0.97900
C2024       C  0.71196217  0.45396661  0.20976120     1.03800
O2025       O  0.77650328  0.48569258  0.22597755    -0.78800
C2026       C  0.74882085  0.41459258  0.30900388     1.02100
Fe2027     Fe  0.62095767  0.37454902  0.07287163     1.65800
Fe2028     Fe  0.60401743  0.39029622  0.01162247     1.73200
Fe2029     Fe  0.59324401  0.41070903  0.07624613     1.54400
O2030       O  0.56895530  0.37885849  0.10202597    -0.82500
O2031       O  0.60862882  0.42683528  0.00781314    -0.80800
O2032       O  0.59571301  0.36374814  0.10839439    -0.85000
O2033       O  0.64678990  0.40799059  0.09152641    -0.79900
O2034       O  0.56241980  0.40037703  0.04695699    -0.81600
O2035       O  0.64334810  0.40723462  0.00756926    -0.84400
C2036       C  0.64281570  0.42089284  0.11012943     0.96400
C2037       C  0.57565835  0.36481989  0.11559932     1.03800
O2038       O  0.60561360  0.39155279  0.05369576    -1.13400
O2039       O  0.59970045  0.35360385  0.00876163    -0.75800
O2040       O  0.59598497  0.34014867  0.05418901    -0.79300
O2041       O  0.62244264  0.42269830  0.10861198    -0.80000
C2042       C  0.59456534  0.33604233  0.02720550     0.95300
O2043       O  0.64896240  0.38394760  0.04063176    -0.77900
O2044       O  0.56499788  0.37393914  0.01460666    -0.83100
C2045       C  0.61827058  0.44623172  0.02460959     0.97900
C2046       C  0.55306788  0.38430252  0.02590742     1.03800
O2047       O  0.61718127  0.44370372  0.05212216    -0.78800
C2048       C  0.65742175  0.40037972  0.02022996     1.02100
Fe2049     Fe  0.53735958  0.26283832  0.30933152     1.65800
Fe2050     Fe  0.56239443  0.26877936  0.24126219     1.73200
Fe2051     Fe  0.99600277  0.24551787  0.24935198     1.54400
O2052       O  0.98039128  0.21233238  0.27519014    -0.82500
O2053       O  0.55372908  0.29078036  0.21509913    -0.80800
O2054       O  0.50768179  0.22570932  0.31489437    -0.85000
O2055       O  0.51320593  0.27754678  0.31639429    -0.79900
O2056       O  0.00025658  0.22406518  0.21602496    -0.81600
O2057       O  0.58595818  0.30107403  0.26456391    -0.84400
C2058       C  0.99390483  0.27677782  0.30279241     0.96400
C2059       C  0.98643147  0.20786015  0.30006716     1.03800
O2060       O  0.53249750  0.25972055  0.26670844    -1.13400
O2061       O  0.57509643  0.24848941  0.26440811    -0.75800
O2062       O  0.56284891  0.24905888  0.30975328    -0.79300
O2063       O  0.98510229  0.26455232  0.27925653    -0.80000
C2064       C  0.57585421  0.24456369  0.29124033     0.95300
O2065       O  0.56835208  0.30006196  0.30781547    -0.77900
O2066       O  0.54343762  0.23735592  0.21493863    -0.83100
C2067       C  0.53456018  0.29354921  0.20960218     0.97900
C2068       C  0.52038741  0.22274099  0.20718354     1.03800
O2069       O  0.51211959  0.27889366  0.22069337    -0.78800
C2070       C  0.58660825  0.31063731  0.28931711     1.02100
Fe2071     Fe  0.60522175  0.20132991  0.02097492     1.65800
Fe2072     Fe  0.60575961  0.22999946  0.08372684     1.73200
Fe2073     Fe  0.58301607  0.16551655  0.08342191     1.54400
O2074       O  0.55567735  0.14780560  0.05059979    -0.82500
O2075       O  0.62501547  0.22284522  0.11507711    -0.80800
O2076       O  0.56712143  0.17555776  0.01360287    -0.85000
O2077       O  0.61357045  0.17258898  0.01975825    -0.79900
O2078       O  0.55610038  0.17081572  0.10705291    -0.81600
O2079       O  0.64095480  0.25124108  0.06226483    -0.84400
C2080       C  0.61515086  0.15759031  0.03730279     0.96400
C2081       C  0.55131072  0.15462155  0.02607840     1.03800
O2082       O  0.59799274  0.19874749  0.06295175    -1.13400
O2083       O  0.58636540  0.23997104  0.05489763    -0.75800
O2084       O  0.59810926  0.23078367  0.01296937    -0.79300
O2085       O  0.60734441  0.15496503  0.06335012    -0.80000
C2086       C  0.58928132  0.24244422  0.02772266     0.95300
O2087       O  0.64415171  0.22726310  0.02719868    -0.77900
O2088       O  0.57257989  0.21309070  0.10821061    -0.83100
C2089       C  0.62419088  0.20350657  0.12681973     0.97900
C2090       C  0.55554780  0.19061330  0.11559884     1.03800
O2091       O  0.60942538  0.18059875  0.11784447    -0.78800
C2092       C  0.65420602  0.24686019  0.04367469     1.02100
Fe2093     Fe  0.79190922  0.39081367  0.01819866     1.65800
Fe2094     Fe  0.76777395  0.38926366  0.08530390     1.73200
Fe2095     Fe  0.83299206  0.41509369  0.07669880     1.54400
O2096       O  0.84421372  0.39302291  0.05221521    -0.82500
O2097       O  0.78573539  0.42276582  0.10973624    -0.80800
O2098       O  0.81934653  0.38047275  0.01328717    -0.85000
O2099       O  0.81810313  0.42823678  0.00800471    -0.79900
O2100       O  0.82182759  0.38828749  0.11152360    -0.81600
O2101       O  0.75292802  0.40596311  0.05961381    -0.84400
C2102       C  0.83770040  0.44664719  0.02003803     0.96400
C2103       C  0.83755360  0.38168597  0.02788208     1.03800
O2104       O  0.79775440  0.39847665  0.06018482    -1.13400
O2105       O  0.74552173  0.35406172  0.06536781    -0.75800
O2106       O  0.76561825  0.35244359  0.02529989    -0.79300
O2107       O  0.84610876  0.44411282  0.04453679    -0.80000
C2108       C  0.74785279  0.34169041  0.04424169     0.95300
O2109       O  0.76280305  0.39976839  0.01514102    -0.77900
O2110       O  0.77901958  0.37144318  0.11379074    -0.83100
C2111       C  0.80880677  0.43913577  0.11648656     0.97900
C2112       C  0.79971462  0.37381699  0.12362520     1.03800
O2113       O  0.82822567  0.43956765  0.10463234    -0.78800
C2114       C  0.75057098  0.40633389  0.03248295     1.02100
Fe2115     Fe  0.71884904  0.29048986  0.26077150     1.65800
Fe2116     Fe  0.72648837  0.26527085  0.32170344     1.73200
Fe2117     Fe  0.74593076  0.25411956  0.25530262     1.54400
O2118       O  0.71217363  0.23529732  0.23012469    -0.82500
O2119       O  0.76407133  0.27287616  0.32499777    -0.80800
O2120       O  0.70924819  0.26970087  0.22236960    -0.85000
O2121       O  0.75599148  0.31414421  0.24659961    -0.79900
O2122       O  0.73139545  0.22059506  0.28038133    -0.81600
O2123       O  0.74153621  0.30414719  0.33050857    -0.84400
C2124       C  0.76545061  0.30779250  0.22573760     0.96400
C2125       C  0.70188345  0.24643040  0.21701522     1.03800
O2126       O  0.73024040  0.26955984  0.27970383    -1.13400
O2127       O  0.68787933  0.25693521  0.32095265    -0.75800
O2128       O  0.68180831  0.26684806  0.27616782    -0.79300
O2129       O  0.76239280  0.28520084  0.22492480    -0.80000
C2130       C  0.67313745  0.25631056  0.30075186     0.95300
O2131       O  0.72651179  0.31596084  0.29392518    -0.77900
O2132       O  0.71213121  0.22638164  0.31898428    -0.83100
C2133       C  0.78259863  0.27658044  0.30799253     0.97900
C2134       C  0.71739116  0.21228273  0.30319464     1.03800
O2135       O  0.77952577  0.27193613  0.28065911    -0.78800
C2136       C  0.73814840  0.32063846  0.31768178     1.02100
Fe2137     Fe  0.90100780  0.12607638  0.90408840     1.65800
Fe2138     Fe  0.89838592  0.10072365  0.97009826     1.73200
Fe2139     Fe  0.91764350  0.07993665  0.90943700     1.54400
O2140       O  0.88872527  0.06581559  0.87739325    -0.82500
O2141       O  0.93477297  0.10718122  0.97791607    -0.80800
O2142       O  0.88218839  0.09881386  0.87294734    -0.85000
O2143       O  0.93560808  0.14026742  0.88281305    -0.79900
O2144       O  0.89433361  0.04771621  0.93501004    -0.81600
O2145       O  0.91261977  0.13955987  0.97557995    -0.84400
C2146       C  0.94816000  0.13029094  0.87248875     0.96400
C2147       C  0.87840881  0.07712112  0.86461504     1.03800
O2148       O  0.90551395  0.10200800  0.92789665    -1.13400
O2149       O  0.86159661  0.09539610  0.96470221    -0.75800
O2150       O  0.86584627  0.11491478  0.92242841    -0.79300
O2151       O  0.94340788  0.10800203  0.87983730    -0.80000
C2152       C  0.85318683  0.10410114  0.94525101     0.95300
O2153       O  0.91884221  0.15682694  0.93199048    -0.77900
O2154       O  0.88272826  0.06153499  0.97402071    -0.83100
C2155       C  0.95133130  0.10312669  0.96513825     0.97900
C2156       C  0.88324346  0.04383287  0.95964950     1.03800
O2157       O  0.94739460  0.09269328  0.94001119    -0.78800
C2158       C  0.91931952  0.15868183  0.95931606     1.02100
Fe2159     Fe  0.95945689  0.22621591  0.68707537     1.65800
Fe2160     Fe  0.93871416  0.20957772  0.75693990     1.73200
Fe2161     Fe  0.50578394  0.24897926  0.74612000     1.54400
O2162       O  0.51663187  0.22905957  0.71720616    -0.82500
O2163       O  0.95367105  0.24071178  0.78529825    -0.80800
O2164       O  0.98902741  0.21926787  0.67593457    -0.85000
O2165       O  0.98299857  0.26503772  0.68125938    -0.79900
O2166       O  0.50180862  0.22266661  0.77828349    -0.81600
O2167       O  0.91704778  0.22375090  0.73988255    -0.84400
C2168       C  0.50572950  0.28238837  0.69449983     0.96400
C2169       C  0.50918269  0.22034983  0.69167626     1.03800
O2170       O  0.96707550  0.22767657  0.72893460    -1.13400
O2171       O  0.91922385  0.17677593  0.73142749    -0.75800
O2172       O  0.93474225  0.18728576  0.68636294    -0.79300
O2173       O  0.51633700  0.27820020  0.71580041    -0.80000
C2174       C  0.91883970  0.17154747  0.70460058     0.95300
O2175       O  0.92760737  0.23134830  0.69300707    -0.77900
O2176       O  0.95627924  0.19221496  0.77736360    -0.83100
C2177       C  0.97404861  0.26262236  0.78736696     0.97900
C2178       C  0.97925553  0.19945840  0.78466832     1.03800
O2179       O  0.49735298  0.27059828  0.77593472    -0.78800
C2180       C  0.91272456  0.22830947  0.71448298     1.02100
Fe2181     Fe  0.89994812  0.28862007  0.98105686     1.65800
Fe2182     Fe  0.88998873  0.26021636  0.91489129     1.73200
Fe2183     Fe  0.91547289  0.32507051  0.91863465     1.54400
O2184       O  0.89263584  0.33466998  0.94418822    -0.82500
O2185       O  0.92109603  0.27671582  0.88622474    -0.80800
O2186       O  0.88945226  0.31593387  0.98660842    -0.85000
O2187       O  0.93825255  0.31562556  0.98455826    -0.79900
O2188       O  0.88621214  0.31130903  0.88691200    -0.81600
O2189       O  0.91013118  0.24734372  0.93843075    -0.84400
C2190       C  0.95268844  0.33675496  0.97173932     0.96400
C2191       C  0.88575323  0.33071173  0.97071339     1.03800
O2192       O  0.90199205  0.29143964  0.93808690    -1.13400
O2193       O  0.85681594  0.24025460  0.94013240    -0.75800
O2194       O  0.86107943  0.26187171  0.98112572    -0.79300
O2195       O  0.94618264  0.34306686  0.94823687    -0.80000
C2196       C  0.84756390  0.24410585  0.96340212     0.95300
O2197       O  0.90976191  0.26021063  0.98357246    -0.77900
O2198       O  0.86840574  0.26887199  0.88812834    -0.83100
C2199       C  0.93819441  0.29919425  0.87846142     0.97900
C2200       C  0.86970459  0.28890785  0.87791178     1.03800
O2201       O  0.93975934  0.31933674  0.88975721    -0.78800
C2202       C  0.91391971  0.24688602  0.96527005     1.02100
Fe2203     Fe  0.71011555  0.10245662  0.97453536     1.65800
Fe2204     Fe  0.72919355  0.12103066  0.90457575     1.73200
Fe2205     Fe  0.66529055  0.08111924  0.91936216     1.54400
O2206       O  0.65550811  0.05057742  0.94788521    -0.82500
O2207       O  0.71023683  0.13727513  0.88531218    -0.80800
O2208       O  0.68684847  0.06335825  0.98035419    -0.85000
O2209       O  0.68068331  0.10863412  0.98685815    -0.79900
O2210       O  0.67493605  0.06141121  0.88817373    -0.81600
O2211       O  0.74726122  0.15305763  0.92975042    -0.84400
C2212       C  0.66145170  0.10817607  0.97506211     0.96400
C2213       C  0.66566205  0.04634222  0.96964781     1.03800
O2214       O  0.70152492  0.10140172  0.93293974    -1.13400
O2215       O  0.75270817  0.10889685  0.92095571    -0.75800
O2216       O  0.74127656  0.09728446  0.96705557    -0.79300
O2217       O  0.65351952  0.09912255  0.94975352    -0.80000
C2218       C  0.75636934  0.10206891  0.94548293     0.95300
O2219       O  0.73510632  0.14188759  0.97537491    -0.77900
O2220       O  0.71531427  0.09082488  0.87575493    -0.83100
C2221       C  0.68702935  0.12972164  0.87908503     0.97900
C2222       C  0.69555111  0.06864063  0.87315701     1.03800
O2223       O  0.66845843  0.10851166  0.88856211    -0.78800
C2224       C  0.74882391  0.15848071  0.95642672     1.02100
Fe2225     Fe  0.76780373  0.04105832  0.67564663     1.65800
Fe2226     Fe  0.77493900  0.06990866  0.74112984     1.73200
Fe2227     Fe  0.75391877  0.50615455  0.74062074     1.54400
O2228       O  0.71971416  0.48866025  0.71677672    -0.82500
O2229       O  0.79264622  0.06060398  0.77324024    -0.80800
O2230       O  0.73215121  0.00831141  0.67238049    -0.85000
O2231       O  0.78707577  0.02090385  0.67299487    -0.79900
O2232       O  0.73462899  0.51353952  0.77506183    -0.81600
O2233       O  0.81007142  0.08887807  0.72030760    -0.84400
C2234       C  0.78483005  0.50245155  0.68710875     0.96400
C2235       C  0.71558420  0.49138456  0.69026226     1.03800
O2236       O  0.76534107  0.03903836  0.71831857    -1.13400
O2237       O  0.75901352  0.08400391  0.71295183    -0.75800
O2238       O  0.74912643  0.06200680  0.67169053    -0.79300
O2239       O  0.77125225  0.49343902  0.71008219    -0.80000
C2240       C  0.74902516  0.07892369  0.68804251     0.95300
O2241       O  0.80390285  0.07386114  0.67494214    -0.77900
O2242       O  0.74043753  0.05336387  0.76368903    -0.83100
C2243       C  0.79963464  0.04407532  0.77614651     0.97900
C2244       C  0.73035699  0.03293597  0.77844959     1.03800
O2245       O  0.78807714  0.52160526  0.76475289    -0.78800
C2246       C  0.81808220  0.08887234  0.69474133     1.02100
Fe2247     Fe  0.76704606  0.20162209  0.75529486     1.65800
Fe2248     Fe  0.76712628  0.22408573  0.68784068     1.73200
Fe2249     Fe  0.74759545  0.24533363  0.74745698     1.54400
O2250       O  0.72539268  0.21948080  0.78121609    -0.82500
O2251       O  0.78525715  0.26350564  0.68417906    -0.80800
O2252       O  0.73251940  0.18691883  0.77759059    -0.85000
O2253       O  0.78629713  0.23116644  0.78489204    -0.79900
O2254       O  0.71519179  0.22734506  0.72015475    -0.81600
O2255       O  0.80324720  0.22771678  0.69159914    -0.84400
C2256       C  0.79204500  0.25443836  0.78846773     0.96400
C2257       C  0.72051906  0.19717851  0.78878258     1.03800
O2258       O  0.76064543  0.22372503  0.73009215    -1.13400
O2259       O  0.75039524  0.18458219  0.68442876    -0.75800
O2260       O  0.74979054  0.16986827  0.72852568    -0.79300
O2261       O  0.78014324  0.26396619  0.77511851    -0.80000
C2262       C  0.74596512  0.16640092  0.70147610     0.95300
O2263       O  0.80192655  0.21253315  0.73576433    -0.77900
O2264       O  0.73148233  0.21975044  0.67944800    -0.83100
C2265       C  0.78057340  0.28018575  0.69480170     0.97900
C2266       C  0.71308031  0.21947275  0.69383666     1.03800
O2267       O  0.76640183  0.27554787  0.71736531    -0.78800
C2268       C  0.81315020  0.22125291  0.71156508     1.02100
C2269       C  0.75013882  0.11426352  0.65948969    -0.02700
C2270       C  0.73703985  0.09395055  0.67906984     0.07000
C2271       C  0.71942250  0.09470043  0.69862534    -0.02800
C2272       C  0.72082149  0.11810115  0.70515348    -0.02800
C2273       C  0.73802980  0.14045208  0.68942322     0.07100
C2274       C  0.75074714  0.13771314  0.66452063    -0.03000
Br2275     Br  0.77163054  0.16624145  0.63913659    -0.01500
Br2276     Br  0.76743185  0.10965706  0.62652947    -0.01600
Br2277     Br  0.70076191  0.11909307  0.73737795    -0.01600
Br2278     Br  0.69484561  0.06345146  0.71756105    -0.01600
C2279       C  0.69439131  0.17288414  0.86422422    -0.02700
C2280       C  0.68294397  0.14635518  0.85844937     0.07000
C2281       C  0.67489843  0.13795945  0.82994485    -0.02800
C2282       C  0.68304532  0.15602614  0.80720808    -0.02800
C2283       C  0.70121404  0.18210387  0.81225456     0.07100
C2284       C  0.70475453  0.19089611  0.84123692    -0.03000
Br2285     Br  0.72450783  0.22703309  0.84956455    -0.01500
Br2286     Br  0.69373035  0.18363094  0.90345344    -0.01600
Br2287     Br  0.66837003  0.14583153  0.76947067    -0.01600
Br2288     Br  0.65417358  0.10193997  0.82174181    -0.01600
C2289       C  0.69179667  0.03152640  0.80424017    -0.02700
C2290       C  0.71598338  0.03269977  0.80532788     0.07000
C2291       C  0.72945321  0.03973516  0.83167952    -0.02800
C2292       C  0.72051698  0.04829193  0.85517122    -0.02800
C2293       C  0.69854871  0.05100356  0.85251667     0.07100
C2294       C  0.68310115  0.04072234  0.82773306    -0.03000
Br2295     Br  0.65075333  0.04013827  0.82548723    -0.01500
Br2296     Br  0.67049325  0.01709042  0.77085613    -0.01600
Br2297     Br  0.73892135  0.05680478  0.89110897    -0.01600
Br2298     Br  0.76175472  0.04025467  0.83501934    -0.01600
C2299       C  0.78453228  0.18886440  0.99009768     0.02700
C2300       C  0.76940552  0.18474024  0.96498439     0.07000
C2301       C  0.77789834  0.20493601  0.94463355    -0.02800
C2302       C  0.80285314  0.22618653  0.94633140    -0.02800
C2303       C  0.81943594  0.22776176  0.96836090     0.07100
C2304       C  0.80909169  0.21119674  0.99224290    -0.03000
Br2305     Br  0.82791602  0.21958708  0.02789809    -0.01500
Br2306     Br  0.77434356  0.16301902  0.01972733    -0.01600
Br2307     Br  0.81443488  0.25360984  0.91864767    -0.01600
Br2308     Br  0.75688125  0.20320035  0.91255562    -0.01600
C2309       C  0.85168929  0.26974334  0.82951241    -0.02700
C2310       C  0.85204905  0.28495048  0.85315006     0.07000
C2311       C  0.83439337  0.29417726  0.85306379    -0.02800
C2312       C  0.81469246  0.28537395  0.83159065    -0.02800
C2313       C  0.81468708  0.27002243  0.80815025     0.07100
C2314       C  0.83558172  0.26554551  0.80596852    -0.03000
Br2315     Br  0.84450999  0.25652638  0.76947162    -0.01500
Br2316     Br  0.87132087  0.25218232  0.82926076    -0.01600
Br2317     Br  0.78766761  0.29365247  0.83485342    -0.01600
Br2318     Br  0.83591145  0.31710771  0.88330024    -0.01600
C2319       C  0.86421129  0.10275000  0.70082590    -0.02700
C2320       C  0.84539373  0.10704132  0.68855959     0.07000
C2321       C  0.85277067  0.13055846  0.67516556    -0.02800
C2322       C  0.87868743  0.15032446  0.67578016    -0.02800
C2323       C  0.89637790  0.14781327  0.69350706     0.07100
C2324       C  0.88933732  0.12351396  0.70483903    -0.03000
Br2325     Br  0.91335271  0.11853690  0.72654983    -0.01500
Br2326     Br  0.85493576  0.06865072  0.71335684    -0.01600
Br2327     Br  0.88867683  0.18161101  0.65485305    -0.01600
Br2328     Br  0.82698341  0.13708374  0.65981589    -0.01600
C2329       C  0.88504370  0.24662272  0.69757538    -0.02700
C2330       C  0.88738628  0.22657130  0.70996584     0.07000
C2331       C  0.86479618  0.20391716  0.71910032    -0.02800
C2332       C  0.84045165  0.20151202  0.71631402    -0.02800
C2333       C  0.83832318  0.22255736  0.70703984     0.07100
C2334       C  0.86059405  0.24495584  0.69691622    -0.03000
Br2335     Br  0.85806100  0.27408663  0.68459661    -0.01500
Br2336     Br  0.91535094  0.27694673  0.68342463    -0.01600
Br2337     Br  0.80976226  0.16880671  0.72506346    -0.01600
Br2338     Br  0.86641067  0.17573764  0.73652243    -0.01600
C2339       C  0.94667005  0.29999083  0.82513465    -0.02700
C2340       C  0.95528747  0.30090550  0.85360305     0.07000
C2341       C  0.97635735  0.29704631  0.85766530    -0.02800
C2342       C  0.98529488  0.28768205  0.83466664    -0.02800
C2343       C  0.97264706  0.28141615  0.80774362     0.07100
C2344       C  0.95490461  0.28981023  0.80238686    -0.03000
Br2345     Br  0.94191924  0.28730890  0.76382911    -0.01500
Br2346     Br  0.92364269  0.31280059  0.81762832    -0.01600
Br2347     Br  0.01459001  0.28342436  0.84005761    -0.01600
Br2348     Br  0.99324776  0.30537975  0.89443501    -0.01600
C2349       C  0.80547413  0.08093018  0.95733967    -0.02700
C2350       C  0.82839806  0.10351285  0.94911494     0.07000
C2351       C  0.82755691  0.12595934  0.94246700    -0.02800
C2352       C  0.80395797  0.12538677  0.94275789    -0.02800
C2353       C  0.78085784  0.10240388  0.94914703     0.07100
C2354       C  0.78167007  0.08042782  0.95749880    -0.03000
Br2355     Br  0.75015342  0.04940147  0.96769157    -0.01500
Br2356     Br  0.80612531  0.05011755  0.96602874    -0.01600
Br2357     Br  0.80371839  0.15674387  0.93490996    -0.01600
Br2358     Br  0.85855556  0.15805664  0.93253483    -0.01600
C2359       C  0.84159728  0.04018811  0.83640730    -0.02700
C2360       C  0.86145638  0.06615579  0.83854558     0.07000
C2361       C  0.86292082  0.08352643  0.81717887    -0.02800
C2362       C  0.84274091  0.07643107  0.79747094    -0.02800
C2363       C  0.82177542  0.05075359  0.79624284     0.07100
C2364       C  0.82204448  0.03244016  0.81515435    -0.03000
Br2365     Br  0.79446970  0.99710058  0.81416322    -0.01500
Br2366     Br  0.84055851  0.01520003  0.86281870    -0.01600
Br2367     Br  0.84441818  0.10336194  0.77345345    -0.01600
Br2368     Br  0.89325383  0.11754808  0.81407739    -0.01600
C2369       C  0.90358932  0.20637185  0.99057851    -0.02700
C2370       C  0.92151248  0.22836916  0.97514015     0.07000
C2371       C  0.94374063  0.22934521  0.96343285    -0.02800
C2372       C  0.94503609  0.20675662  0.96111613    -0.02800
C2373       C  0.92471171  0.18349142  0.97215452     0.07100
C2374       C  0.90562226  0.18412421  0.98993429    -0.03000
Br2375     Br  0.88016692  0.15392333  0.01052760    -0.01500
Br2376     Br  0.87441504  0.20543018  0.00945438    -0.01600
Br2377     Br  0.97409747  0.20750963  0.94212717    -0.01600
Br2378     Br  0.97212027  0.26167553  0.95091263    -0.01600
C2379       C  0.97182503  0.15606982  0.79822507    -0.02700
C2380       C  0.98283579  0.18230697  0.80503634     0.07000
C2381       C  0.99208737  0.19016361  0.83336260    -0.02800
C2382       C  0.98519883  0.17162259  0.85536829    -0.02800
C2383       C  0.96763169  0.14557446  0.84967008     0.07100
C2384       C  0.96317968  0.13750583  0.82049362    -0.03000
Br2385     Br  0.94402018  0.10149633  0.81109755    -0.01500
Br2386     Br  0.97117199  0.14657687  0.75841361    -0.01600
Br2387     Br  0.99943109  0.18112022  0.89350453    -0.01600
Br2388     Br  0.01340358  0.22579930  0.84236357    -0.01600
C2389       C  0.88459859  0.01227186  0.99383246    -0.02700
C2390       C  0.87110274  0.01782559  0.97301113     0.07000
C2391       C  0.84568918  0.99903750  0.96626478    -0.02800
C2392       C  0.83531433  0.47957380  0.98824065    -0.02800
C2393       C  0.85052641  0.47199309  0.00435649     0.07100
C2394       C  0.87776993  0.48826882  0.00381296    -0.03000
Br2395     Br  0.89983277  0.47965306  0.02500944    -0.01500
Br2396     Br  0.91949367  0.03805008  0.00317853    -0.01600
Br2397     Br  0.79792751  0.46000368  0.98926748    -0.01600
Br2398     Br  0.82712675  0.00681608  0.93820059    -0.01600
C2399       C  0.83714866  0.34182950  0.01243700    -0.02700
C2400       C  0.85087821  0.36874592  0.01545635     0.07000
C2401       C  0.87572843  0.38317371  0.00293713    -0.02800
C2402       C  0.88668399  0.37083435  0.98710265    -0.02800
C2403       C  0.87312538  0.34388960  0.98443358     0.07100
C2404       C  0.84840204  0.32939152  0.99745893    -0.03000
Br2405     Br  0.82940389  0.29246570  0.99416894    -0.01500
Br2406     Br  0.80274116  0.32199568  0.02884907    -0.01600
Br2407     Br  0.92058735  0.39081058  0.96969693    -0.01600
Br2408     Br  0.89449970  0.41990404  0.00674467    -0.01600
C2409       C  0.79675448  0.32703564  0.18207657    -0.02700
C2410       C  0.77751867  0.32653725  0.20098334     0.07000
C2411       C  0.76854746  0.34388531  0.19538479    -0.02800
C2412       C  0.77909593  0.36153095  0.17251005    -0.02800
C2413       C  0.79619457  0.36023987  0.15191431     0.07100
C2414       C  0.80537154  0.34319341  0.15715834    -0.03000
Br2415     Br  0.82847655  0.34088854  0.12945325    -0.01500
Br2416     Br  0.81158327  0.30585335  0.18998623    -0.01600
Br2417     Br  0.76909295  0.38746371  0.16946245    -0.01600
Br2418     Br  0.73911767  0.34223214  0.21593308    -0.01600
C2419       C  0.50304275  0.12656504  0.02689821    -0.02700
C2420       C  0.52658466  0.13778529  0.01125374     0.07000
C2421       C  0.52629037  0.13445708  0.98079543    -0.02800
C2422       C  0.99994822  0.12066730  0.96503588    -0.02800
C2423       C  0.97635017  0.11189108  0.98060766     0.07100
C2424       C  0.97718475  0.11367834  0.01146010    -0.03000
Br2425     Br  0.94601717  0.10038314  0.03514436    -0.01500
Br2426     Br  0.50225758  0.13234384  0.06812034    -0.01600
Br2427     Br  0.00073155  0.11776843  0.92326959    -0.01600
Br2428     Br  0.55822425  0.14612702  0.95921945    -0.01600
C2429       C  0.65360131  0.15684629  0.01939514    -0.02700
C2430       C  0.62706151  0.14323861  0.02595533     0.07000
C2431       C  0.61138692  0.11802580  0.01559537    -0.02800
C2432       C  0.62238822  0.10629780  0.99872214    -0.02800
C2433       C  0.64899384  0.12010285  0.99170466     0.07100
C2434       C  0.66448522  0.14551134  0.00198779    -0.03000
Br2435     Br  0.70020729  0.16607275  0.99016204    -0.01500
Br2436     Br  0.67478195  0.19169434  0.03321823    -0.01600
Br2437     Br  0.60095190  0.07154905  0.98526179    -0.01600
Br2438     Br  0.57459459  0.10040387  0.02289878    -0.01600
C2439       C  0.69595999  0.27587386  0.06794318    -0.02700
C2440       C  0.68230105  0.26598795  0.04195427     0.07000
C2441       C  0.69483046  0.27723486  0.01547037    -0.02800
C2442       C  0.71778409  0.30147175  0.01556046    -0.02800
C2443       C  0.72861087  0.31377047  0.04227259     0.07100
C2444       C  0.71910031  0.29949837  0.06812607    -0.03000
Br2445     Br  0.73780105  0.31178848  0.10403819    -0.01500
Br2446     Br  0.68349953  0.25672897  0.10343674    -0.01600
Br2447     Br  0.73313009  0.31779853  0.97908364    -0.01600
Br2448     Br  0.68086101  0.25974550  0.97927656    -0.01600
C2449       C  0.66031373  0.20263525  0.15434449    -0.02700
C2450       C  0.64086988  0.20925961  0.15273761     0.07000
C2451       C  0.64049723  0.22640883  0.17333736    -0.02800
C2452       C  0.66111667  0.23967760  0.19255904    -0.02800
C2453       C  0.68069574  0.23290184  0.19501615     0.07100
C2454       C  0.67964709  0.21373682  0.17596547    -0.03000
Br2455     Br  0.70617157  0.20456314  0.17686635    -0.01500
Br2456     Br  0.66163599  0.17998630  0.12548718    -0.01600
Br2457     Br  0.66143401  0.26749227  0.21443619    -0.01600
Br2458     Br  0.61103302  0.23159317  0.17522584    -0.01600
C2459       C  0.62817302  0.22833566  0.28284112    -0.02700
C2460       C  0.64461974  0.24342186  0.30533407     0.07000
C2461       C  0.63364084  0.24938062  0.32921268    -0.02800
C2462       C  0.60887172  0.24668304  0.32681853    -0.02800
C2463       C  0.59481176  0.23695054  0.30070660     0.07100
C2464       C  0.60331455  0.22492458  0.28063825    -0.03000
Br2465     Br  0.58157601  0.20448091  0.24927448    -0.01500
Br2466     Br  0.63938917  0.21190658  0.25515045    -0.01600
Br2467     Br  0.59624217  0.25891912  0.35824951    -0.01600
Br2468     Br  0.65234140  0.26147675  0.36485494    -0.01600
C2469       C  0.52401074  0.20371535  0.13141727    -0.02700
C2470       C  0.53543516  0.18859891  0.13629111     0.07000
C2471       C  0.53282804  0.17768544  0.16396261    -0.02800
C2472       C  0.52269465  0.18538810  0.18722295    -0.02800
C2473       C  0.51654931  0.20479599  0.18318961     0.07100
C2474       C  0.51506776  0.21221862  0.15486751    -0.03000
Br2475     Br  0.00031283  0.23352115  0.14854572    -0.01500
Br2476     Br  0.52281777  0.21470556  0.09285924    -0.01600
Br2477     Br  0.51776830  0.17022283  0.22487674    -0.01600
Br2478     Br  0.54617014  0.15511131  0.17114832    -0.01600
C2479       C  0.50094405  0.36470736  0.96941931    -0.02700
C2480       C  0.97819821  0.35414037  0.98531770     0.07000
C2481       C  0.97983131  0.35725707  0.01588522    -0.02800
C2482       C  0.50564709  0.37011713  0.03025091    -0.02800
C2483       C  0.52782917  0.37744369  0.01287642     0.07100
C2484       C  0.52544089  0.37584418  0.98227813    -0.03000
Br2485     Br  0.55574184  0.38862108  0.95741280    -0.01500
Br2486     Br  0.49858013  0.36286272  0.92763111    -0.01600
Br2487     Br  0.50846465  0.37458792  0.07177321    -0.01600
Br2488     Br  0.94892441  0.34658806  0.03902384    -0.01600
C2489       C  0.65621943  0.00087891  0.97242386    -0.02700
C2490       C  0.65234816  0.02050167  0.98341666     0.07000
C2491       C  0.63678018  0.01578532  0.00844125    -0.02800
C2492       C  0.62622430  0.49166473  0.02218954    -0.02800
C2493       C  0.63109404  0.47246475  0.01128032     0.07100
C2494       C  0.64829752  0.47852620  0.98723346    -0.03000
Br2495     Br  0.65594779  0.45357133  0.97076657    -0.01500
Br2496     Br  0.67798678  0.00758334  0.93850520    -0.01600
Br2497     Br  0.60003144  0.48332148  0.05172364    -0.01600
Br2498     Br  0.63275037  0.04311538  0.02472923    -0.01600
C2499       C  0.56582645  0.28846627  0.02209791    -0.02700
C2500       C  0.58993327  0.31083618  0.01744025     0.07000
C2501       C  0.61115436  0.30868575  0.00767164    -0.02800
C2502       C  0.60876375  0.28454121  0.00436555    -0.02800
C2503       C  0.58615997  0.26265870  0.01400880     0.07100
C2504       C  0.56388998  0.26426108  0.01961844    -0.03000
Br2505     Br  0.53096493  0.23319989  0.02152643    -0.01500
Br2506     Br  0.53640766  0.29105215  0.03463041    -0.01600
Br2507     Br  0.63757522  0.28198014  0.98946647    -0.01600
Br2508     Br  0.64510782  0.33823927  0.00502915    -0.01600
C2509       C  0.57420146  0.35569858  0.16852088    -0.02700
C2510       C  0.56111316  0.35002306  0.14193176     0.07000
C2511       C  0.53576073  0.32870500  0.14054702    -0.02800
C2512       C  0.52495309  0.31175248  0.16453975    -0.02800
C2513       C  0.54009303  0.31516482  0.18928720     0.07100
C2514       C  0.56386093  0.33849085  0.19194649    -0.03000
Br2515     Br  0.08103919  0.34357897  0.22817732    -0.01500
Br2516     Br  0.60677676  0.38710992  0.17283884    -0.01600
Br2517     Br  0.48953646  0.28443130  0.16345781    -0.01600
Br2518     Br  0.51667467  0.32165235  0.10514929    -0.01600
C2519       C  0.69372603  0.40175002  0.99170507    -0.02700
C2520       C  0.68503720  0.41249924  0.01289423     0.07000
C2521       C  0.70236398  0.42919918  0.03342931    -0.02800
C2522       C  0.72535909  0.42918327  0.03834418    -0.02800
C2523       C  0.73162827  0.41329261  0.02136657     0.07100
C2524       C  0.71699178  0.40171205  0.99596745    -0.03000
Br2525     Br  0.72659137  0.38381082  0.96812727    -0.01500
Br2526     Br  0.67378920  0.38791335  0.95699552    -0.01600
Br2527     Br  0.74677324  0.44991502  0.06957759    -0.01600
Br2528     Br  0.69373481  0.45146927  0.05499577    -0.01600
C2529       C  0.77078068  0.36708311  0.31744701    -0.02700
C2530       C  0.74796590  0.34669889  0.32948475     0.07000
C2531       C  0.73062516  0.35216535  0.34423318    -0.02800
C2532       C  0.73305003  0.37651958  0.34155947    -0.02800
C2533       C  0.75306473  0.39535008  0.32397349     0.07100
C2534       C  0.77354900  0.39163565  0.31533215    -0.03000
Br2535     Br  0.80520788  0.42038184  0.30142102    -0.01500
Br2536     Br  0.79680768  0.36063542  0.30130320    -0.01600
Br2537     Br  0.70694821  0.38241686  0.35895114    -0.01600
Br2538     Br  0.70196811  0.32529185  0.36513638    -0.01600
C2539       C  0.81974686  0.45102398  0.16849154    -0.02700
C2540       C  0.81256279  0.45627850  0.14157222     0.07000
C2541       C  0.80311512  0.47334185  0.14080963    -0.02800
C2542       C  0.79492228  0.47999783  0.16661730    -0.02800
C2543       C  0.79720696  0.47015638  0.19350247     0.07100
C2544       C  0.81196234  0.45787042  0.19442565    -0.03000
Br2545     Br  0.82048540  0.44944428  0.23120139    -0.01500
Br2546     Br  0.83861383  0.43289929  0.16994018    -0.01600
Br2547     Br  0.77793838  0.49989040  0.16404544    -0.01600
Br2548     Br  0.80298307  0.48838916  0.10439820    -0.01600
C2549       C  0.65790863  0.35650224  0.29248212    -0.02700
C2550       C  0.65886895  0.38009267  0.29784935     0.07000
C2551       C  0.63600153  0.38004934  0.30600253    -0.02800
C2552       C  0.61198671  0.35692369  0.30539119    -0.02800
C2553       C  0.61100628  0.33399518  0.29674846     0.07100
C2554       C  0.63416107  0.33367416  0.29213935    -0.03000
Br2555     Br  0.63373592  0.30182519  0.28509667    -0.01500
Br2556     Br  0.68898736  0.35474938  0.28513705    -0.01600
Br2557     Br  0.58054160  0.35694688  0.31480486    -0.01600
Br2558     Br  0.63700883  0.41147363  0.31629254    -0.01600
C2559       C  0.67810968  0.45714429  0.17993463    -0.02700
C2560       C  0.69662300  0.44939086  0.18280632     0.07000
C2561       C  0.69945840  0.43502718  0.16029356    -0.02800
C2562       C  0.68206584  0.42567963  0.13708444    -0.02800
C2563       C  0.66240289  0.43253233  0.13430537     0.07100
C2564       C  0.66130981  0.44908561  0.15579410    -0.03000
Br2565     Br  0.63642692  0.46045165  0.15367958    -0.01500
Br2566     Br  0.67966036  0.98358572  0.20948296    -0.01600
Br2567     Br  0.68553714  0.40158936  0.11155892    -0.01600
Br2568     Br  0.72812833  0.42846339  0.16066048    -0.01600
C2569       C  0.80021510  0.32951264  0.63331570    -0.02700
C2570       C  0.81308457  0.35347231  0.64825953     0.07000
C2571       C  0.81340895  0.35274928  0.67910771    -0.02800
C2572       C  0.80314013  0.32912697  0.69426330    -0.02800
C2573       C  0.79137497  0.30550009  0.67918870     0.07100
C2574       C  0.78958191  0.30597575  0.64861689    -0.03000
Br2575     Br  0.77134814  0.27405443  0.62716198    -0.01500
Br2576     Br  0.79647265  0.32778915  0.59160520    -0.01600
Br2577     Br  0.80642424  0.32936545  0.73588605    -0.01600
Br2578     Br  0.82586155  0.38378929  0.70166158    -0.01600
C2579       C  0.81890166  0.46344390  0.67672310    -0.02700
C2580       C  0.81723793  0.45922852  0.64637312     0.07000
C2581       C  0.80494218  0.46948419  0.62962791    -0.02800
C2582       C  0.79641089  0.48524295  0.64257529    -0.02800
C2583       C  0.79710617  0.48860919  0.67308181     0.07100
C2584       C  0.80883793  0.47788868  0.68996671    -0.03000
Br2585     Br  0.81394260  0.98399898  0.72853061    -0.01500
Br2586     Br  0.83317787  0.44783242  0.70089987    -0.01600
Br2587     Br  0.78490966  0.50288406  0.61740005    -0.01600
Br2588     Br  0.79885353  0.46186291  0.58871921    -0.01600
C2589       C  0.81101166  0.27995315  0.34973036    -0.02700
C2590       C  0.80876433  0.28767124  0.32148383     0.07000
C2591       C  0.83089554  0.30826881  0.30833759    -0.02800
C2592       C  0.85463929  0.32117320  0.32329566    -0.02800
C2593       C  0.85659689  0.31407211  0.35207407     0.07100
C2594       C  0.83433777  0.29347391  0.36517350    -0.03000
Br2595     Br  0.83443471  0.28475241  0.40544771    -0.01500
Br2596     Br  0.78225885  0.25012421  0.36762586    -0.01600
Br2597     Br  0.88428559  0.34855165  0.30343190    -0.01600
Br2598     Br  0.82870547  0.32012172  0.27027358    -0.01600
C2599       C  0.94887196  0.28709902  0.35258571    -0.02700
C2600       C  0.95660957  0.31317311  0.34732898     0.07000
C2601       C  0.97610722  0.32680599  0.32594374    -0.02800
C2602       C  0.98778569  0.31465452  0.31082433    -0.02800
C2603       C  0.98055611  0.28909975  0.31708976     0.07100
C2604       C  0.96134909  0.27555119  0.33820113    -0.03000
Br2605     Br  0.45459929  0.24218268  0.34845390    -0.01500
Br2606     Br  0.41976725  0.26553977  0.37635132    -0.01600
Br2607     Br  0.01460040  0.33315488  0.28216531    -0.01600
Br2608     Br  0.98828606  0.36248300  0.31781136    -0.01600
C2609       C  0.85745428  0.35364356  0.47234405    -0.02700
C2610       C  0.87174086  0.34340420  0.48468181     0.07000
C2611       C  0.87128834  0.34083145  0.51505612    -0.02800
C2612       C  0.86040456  0.35217390  0.53289544    -0.02800
C2613       C  0.84987620  0.36616999  0.52043900     0.07100
C2614       C  0.84654656  0.36498927  0.49019254    -0.03000
Br2615     Br  0.83008730  0.38184661  0.47299529    -0.01500
Br2616     Br  0.85616771  0.35547890  0.43073326    -0.01600
Br2617     Br  0.86329378  0.35184735  0.57454987    -0.01600
Br2618     Br  0.88725342  0.32347739  0.53229080    -0.01600
C2619       C  0.72172829  0.17509084  0.32108246    -0.02700
C2620       C  0.70605016  0.18500198  0.31224700     0.07000
C2621       C  0.67907433  0.16971971  0.31553494    -0.02800
C2622       C  0.66776147  0.14580794  0.32953021    -0.02800
C2623       C  0.68346190  0.13635813  0.34017160     0.07100
C2624       C  0.71052023  0.15086381  0.33490622    -0.03000
Br2625     Br  0.73243581  0.13747025  0.34543275    -0.01500
Br2626     Br  0.75862583  0.19505466  0.31498828    -0.01600
Br2627     Br  0.63059058  0.12731221  0.33529772    -0.01600
Br2628     Br  0.65726436  0.18139198  0.30019030    -0.01600
C2629       C  0.66662603  0.00955931  0.33014872    -0.02700
C2630       C  0.68211221  0.03347965  0.34426002     0.07000
C2631       C  0.70940558  0.04554765  0.34178006    -0.02800
C2632       C  0.72084322  0.03361649  0.32609127    -0.02800
C2633       C  0.70530797  0.00950234  0.31318186     0.07100
C2634       C  0.67832060  0.99811485  0.31405398    -0.03000
Br2635     Br  0.65777607  0.47133127  0.28545095    -0.01500
Br2636     Br  0.62940542  0.99085555  0.33450188    -0.01600
Br2637     Br  0.75794104  0.05047841  0.32149878    -0.01600
Br2638     Br  0.73173633  0.07851390  0.35934672    -0.01600
C2639       C  0.54538813  0.46952216  0.36248477    -0.02700
C2640       C  0.56183348  0.47819185  0.38686744     0.07000
C2641       C  0.55595601  0.46134276  0.41052101    -0.02800
C2642       C  0.53249662  0.43796504  0.41167381    -0.02800
C2643       C  0.51445618  0.43082117  0.38905712     0.07100
C2644       C  0.52146600  0.44626671  0.36390774    -0.03000
Br2645     Br  0.00173345  0.43337557  0.32995863    -0.01500
Br2646     Br  0.55686803  0.98684689  0.32637667    -0.01600
Br2647     Br  0.52496442  0.41659287  0.44550089    -0.01600
Br2648     Br  0.57984675  0.47002756  0.44202655    -0.01600
C2649       C  0.53650796  0.33028017  0.63285264    -0.02700
C2650       C  0.54299933  0.35396455  0.64675022     0.07000
C2651       C  0.53869721  0.35370576  0.67728035    -0.02800
C2652       C  0.52730680  0.33046686  0.69300095    -0.02800
C2653       C  0.51985460  0.30713572  0.67872229     0.07100
C2654       C  0.52514312  0.30720719  0.64885549    -0.03000
Br2655     Br  0.02298152  0.27649271  0.62866940    -0.01500
Br2656     Br  0.04630209  0.32935872  0.59072678    -0.01600
Br2657     Br  0.52130949  0.33035971  0.73431363    -0.01600
Br2658     Br  0.54888746  0.38484740  0.69900358    -0.01600
C2659       C  0.64289320  0.45536728  0.67617306    -0.02700
C2660       C  0.64274907  0.45380473  0.64533922     0.07000
C2661       C  0.66630796  0.46108558  0.63062149    -0.02800
C2662       C  0.68921827  0.46973822  0.64621714    -0.02800
C2663       C  0.68997114  0.47421826  0.67642000     0.07100
C2664       C  0.66634105  0.46537749  0.69151759    -0.03000
Br2665     Br  0.66546445  0.46569048  0.73329043    -0.01500
Br2666     Br  0.61130248  0.44375354  0.69828918    -0.01600
Br2667     Br  0.71827565  0.97304040  0.62343320    -0.01600
Br2668     Br  0.66865012  0.46171477  0.58869438    -0.01600
C2669       C  0.96473095  0.40601804  0.58030403    -0.02700
C2670       C  0.98125005  0.41453997  0.60460774     0.07000
C2671       C  0.97268211  0.42113424  0.63038815    -0.02800
C2672       C  0.94932816  0.42164203  0.63070848    -0.02800
C2673       C  0.93531818  0.41729465  0.60484984     0.07100
C2674       C  0.94275474  0.40862572  0.57994426    -0.03000
Br2675     Br  0.92404524  0.40143438  0.54405189    -0.01500
Br2676     Br  0.97209427  0.39121287  0.54658102    -0.01600
Br2677     Br  0.93811703  0.43075674  0.66605281    -0.01600
Br2678     Br  0.49423390  0.42958513  0.66606493    -0.01600
C2679       C  0.64267815  0.49994646  0.52542066    -0.02700
C2680       C  0.62946676  0.47500164  0.51359931     0.07000
C2681       C  0.63156039  0.47209947  0.48350545    -0.02800
C2682       C  0.64493112  0.99634446  0.46805920    -0.02800
C2683       C  0.65005910  0.02039048  0.47899487     0.07100
C2684       C  0.65017251  0.02349051  0.50933472    -0.03000
Br2685     Br  0.66217076  0.05685628  0.52556652    -0.01500
Br2686     Br  0.64533718  0.50423458  0.56697030    -0.01600
Br2687     Br  0.65097451  0.99318949  0.42750489    -0.01600
Br2688     Br  0.61792324  0.43836630  0.46739306    -0.01600
C2689       C  0.99866329  0.34989240  0.52528732    -0.02700
C2690       C  0.52249121  0.36385435  0.51433734     0.07000
C2691       C  0.52546613  0.36331120  0.48407821    -0.02800
C2692       C  0.50348897  0.35236124  0.46620837    -0.02800
C2693       C  0.98055260  0.34387197  0.47694900     0.07100
C2694       C  0.97709647  0.33869405  0.50683706    -0.03000
Br2695     Br  0.94284204  0.31841585  0.52251812    -0.01500
Br2696     Br  0.99397605  0.34598480  0.56674318    -0.01600
Br2697     Br  0.50699922  0.35238062  0.42459097    -0.01600
Br2698     Br  0.55948831  0.37866921  0.46735032    -0.01600
C2699       C  0.67404412  0.18091829  0.67489661    -0.02700
C2700       C  0.68799562  0.20775844  0.67862766     0.07000
C2701       C  0.68119758  0.22302132  0.66231457    -0.02800
C2702       C  0.66022325  0.21152256  0.64289857    -0.02800
C2703       C  0.64514116  0.18435292  0.64043948     0.07100
C2704       C  0.65280243  0.16922211  0.65612961    -0.03000
Br2705     Br  0.63617485  0.13246230  0.65006068    -0.01500
Br2706     Br  0.68504979  0.16006167  0.69445943    -0.01600
Br2707     Br  0.65342270  0.23360980  0.61921354    -0.01600
Br2708     Br  0.70152012  0.25987032  0.66590759    -0.01600
C2709       C  0.54710751  0.22293112  0.66420769    -0.02700
C2710       C  0.52181823  0.20814655  0.67541975     0.07000
C2711       C  0.50764638  0.18161985  0.66934669    -0.02800
C2712       C  0.51890353  0.16971917  0.65319758    -0.02800
C2713       C  0.54415300  0.18454944  0.64125371     0.07100
C2714       C  0.55802401  0.21138014  0.64663703    -0.03000
Br2715     Br  0.59235367  0.23264720  0.63091600    -0.01500
Br2716     Br  0.56650652  0.25924675  0.67239402    -0.01600
Br2717     Br  0.49883139  0.13295404  0.64719626    -0.01600
Br2718     Br  0.97005084  0.15982214  0.67678116    -0.01600
C2719       C  0.97498729  0.04893375  0.62274320    -0.02700
C2720       C  0.98504231  0.06271670  0.59644284     0.07000
C2721       C  0.96889720  0.05433908  0.57169455    -0.02800
C2722       C  0.94526438  0.03088487  0.57207829    -0.02800
C2723       C  0.93655727  0.01559682  0.59763592     0.07100
C2724       C  0.95046505  0.02626026  0.62354185    -0.03000
Br2725     Br  0.93295693  0.51107126  0.66276586    -0.01500
Br2726     Br  0.49786559  0.05913357  0.66040034    -0.01600
Br2727     Br  0.92556288  0.02035612  0.53645998    -0.01600
Br2728     Br  0.97870099  0.07415433  0.53602564    -0.01600
C2729       C  0.57668075  0.04941755  0.62469671    -0.02700
C2730       C  0.58204939  0.06328209  0.59832936     0.07000
C2731       C  0.58958892  0.05422211  0.57385976    -0.02800
C2732       C  0.58710321  0.02975828  0.57392774    -0.02800
C2733       C  0.57905883  0.01439555  0.59948067     0.07100
C2734       C  0.57503903  0.02511472  0.62523116    -0.03000
Br2735     Br  0.55327531  0.49806875  0.65893054    -0.01500
Br2736     Br  0.57067784  0.06274343  0.66046210    -0.01600
Br2737     Br  0.59315752  0.01765319  0.53717935    -0.01600
Br2738     Br  0.60388421  0.07530649  0.53947643    -0.01600
C2739       C  0.65797219  0.13084587  0.49959768    -0.02700
C2740       C  0.65351455  0.12929072  0.46968654     0.07000
C2741       C  0.64401873  0.14435656  0.45793565    -0.02800
C2742       C  0.63263596  0.15486863  0.47641118    -0.02800
C2743       C  0.63155645  0.15083136  0.50658317     0.07100
C2744       C  0.64674012  0.14132697  0.51818103    -0.03000
Br2745     Br  0.65021155  0.14080767  0.55958892    -0.01500
Br2746     Br  0.67964557  0.11889582  0.51449439    -0.01600
Br2747     Br  0.61764751  0.17359201  0.46051902    -0.01600
Br2748     Br  0.64625559  0.14970311  0.41659990    -0.01600
C2749       C  0.93745279  0.14567591  0.33782326    -0.02700
C2750       C  0.95335336  0.13538083  0.34455549     0.07000
C2751       C  0.97864439  0.14700941  0.33310532    -0.02800
C2752       C  0.98857783  0.16977446  0.31695597    -0.02800
C2753       C  0.97345385  0.18129477  0.31196329     0.07100
C2754       C  0.94739752  0.16844814  0.32129318    -0.03000
Br2755     Br  0.92537143  0.18187642  0.31154399    -0.01500
Br2756     Br  0.90184818  0.12808602  0.35066093    -0.01600
Br2757     Br  0.52369298  0.18491369  0.30194654    -0.01600
Br2758     Br  0.49851607  0.13079391  0.33817418    -0.01600
C2759       C  0.83520081  0.03181676  0.36750111    -0.02700
C2760       C  0.85771843  0.03606890  0.35236284     0.07000
C2761       C  0.85631152  0.03051106  0.32232825    -0.02800
C2762       C  0.83262774  0.02057332  0.30778462    -0.02800
C2763       C  0.81014577  0.01610427  0.32302999     0.07100
C2764       C  0.81173686  0.02242797  0.35277255    -0.03000
Br2765     Br  0.78171374  0.01860067  0.37357561    -0.01500
Br2766     Br  0.83546150  0.03655511  0.40905397    -0.01600
Br2767     Br  0.83099172  0.01184899  0.26720485    -0.01600
Br2768     Br  0.88665485  0.03645718  0.30048940    -0.01600
C2769       C  0.90770542  0.46261395  0.38754112    -0.02700
C2770       C  0.92675431  0.48403790  0.40289627     0.07000
C2771       C  0.94561497  0.48174337  0.41849641    -0.02800
C2772       C  0.94535648  0.45837748  0.41900416    -0.02800
C2773       C  0.92622746  0.43681785  0.40397565     0.07100
C2774       C  0.90738498  0.43896591  0.38818580    -0.03000
Br2775     Br  0.88058003  0.40924988  0.36866932    -0.01500
Br2776     Br  0.88162362  0.46541340  0.36662641    -0.01600
Br2777     Br  0.97230018  0.45660984  0.43962073    -0.01600
Br2778     Br  0.97626465  0.01106742  0.43305843    -0.01600
C2779       C  0.00636909  0.14753368  0.46443167    -0.02700
C2780       C  0.98162577  0.13118312  0.47648077     0.07000
C2781       C  0.97872099  0.13048335  0.50677637    -0.02800
C2782       C  0.49904523  0.14308689  0.52398567    -0.02800
C2783       C  0.52373756  0.15254684  0.51128175     0.07100
C2784       C  0.52669664  0.15738119  0.48130062    -0.03000
Br2785     Br  0.56061699  0.17640097  0.46446525    -0.01500
Br2786     Br  0.00965037  0.15454643  0.42347028    -0.01600
Br2787     Br  0.49561597  0.14251782  0.56558428    -0.01600
Br2788     Br  0.94460192  0.11368199  0.52359763    -0.01600
C2789       C  0.87063033  0.02034707  0.50886321    -0.02700
C2790       C  0.87399898  0.01880988  0.47886103     0.07000
C2791       C  0.86002268  0.49644164  0.47030871    -0.02800
C2792       C  0.84807444  0.47399368  0.48739473    -0.02800
C2793       C  0.85047979  0.47562951  0.51777216     0.07100
C2794       C  0.86131118  0.50006972  0.53108582    -0.03000
Br2795     Br  0.86445392  0.50326113  0.57265199    -0.01500
Br2796     Br  0.88327873  0.05349849  0.52645128    -0.01600
Br2797     Br  0.82974322  0.44080709  0.46927162    -0.01600
Br2798     Br  0.86371872  0.99191942  0.42395269    -0.01600
C2799       C  0.55823730  0.08965570  0.40485908    -0.02700
C2800       C  0.56327185  0.07672789  0.38216610     0.07000
C2801       C  0.54648028  0.06796219  0.35803046    -0.02800
C2802       C  0.52354574  0.06934580  0.35850618    -0.02800
C2803       C  0.51718933  0.07933941  0.38307734     0.07100
C2804       C  0.53544927  0.09085006  0.40531442    -0.03000
Br2805     Br  0.52878735  0.10727513  0.43775532    -0.01500
Br2806     Br  0.58168604  0.10510688  0.43672193    -0.01600
Br2807     Br  0.49973630  0.05508578  0.32666656    -0.01600
Br2808     Br  0.55295147  0.05166001  0.32534604    -0.01600
Fe2809     Fe  0.94710291  0.55565112  0.44111361     1.65800
Fe2810     Fe  0.93543144  0.55770300  0.37036223     1.73200
Fe2811     Fe  0.91429910  0.58462560  0.42097588     1.54400
O2812       O  0.88922440  0.55434701  0.44799011    -0.82500
O2813       O  0.94058589  0.59268158  0.35521697    -0.80800
O2814       O  0.91753497  0.54739095  0.47072329    -0.85000
O2815       O  0.96839890  0.59260396  0.45528185    -0.79900
O2816       O  0.88717795  0.56729033  0.38852115    -0.81600
O2817       O  0.97518110  0.57470550  0.37221242    -0.84400
C2818       C  0.96183783  0.60900414  0.46160390     0.96400
C2819       C  0.89456996  0.54250972  0.46682028     1.03800
O2820       O  0.93249587  0.56624985  0.41062024    -1.13400
O2821       O  0.93161061  0.52190467  0.38042045    -0.75800
O2822       O  0.92699031  0.51800679  0.42841166    -0.79300
O2823       O  0.93997743  0.60608400  0.45460554    -0.80000
C2824       C  0.92763463  0.50906216  0.40367291     0.95300
O2825       O  0.97870997  0.56202056  0.41604577    -0.77900
O2826       O  0.89600873  0.54000870  0.36537136    -0.83100
C2827       C  0.94320123  0.61321595  0.36666539     0.97900
C2828       C  0.88127361  0.54905216  0.37066290     1.03800
O2829       O  0.93722730  0.61443947  0.39301665    -0.78800
C2830       C  0.98818574  0.57133162  0.39132348     1.02100
Fe2831     Fe  0.56517061  0.62357081  0.62458245     1.65800
Fe2832     Fe  0.55778816  0.60912125  0.55251797     1.73200
Fe2833     Fe  0.59017813  0.67217501  0.57395603     1.54400
O2834       O  0.57097221  0.68139691  0.60602523    -0.82500
O2835       O  0.59271513  0.62608830  0.53122635    -0.80800
O2836       O  0.55240574  0.64834660  0.63650097    -0.85000
O2837       O  0.60245374  0.65066189  0.63667246    -0.79900
O2838       O  0.56167799  0.66858931  0.54552795    -0.81600
O2839       O  0.56794302  0.58515121  0.57229361    -0.84400
C2840       C  0.62153140  0.67083824  0.62607089     0.96400
C2841       C  0.55690546  0.67023141  0.62821085     1.03800
O2842       O  0.57109105  0.63501624  0.58377074    -1.13400
O2843       O  0.52176121  0.58851292  0.57066552    -0.75800
O2844       O  0.52663078  0.59512576  0.61788385    -0.79300
O2845       O  0.62019628  0.68007248  0.60193277    -0.80000
C2846       C  0.51258009  0.58355473  0.59616602     0.95300
O2847       O  0.57743435  0.59707025  0.61815717    -0.77900
O2848       O  0.54424796  0.62858063  0.52873752    -0.83100
C2849       C  0.61165071  0.64865345  0.52825717     0.97900
C2850       C  0.54563091  0.65024120  0.52971724     1.03800
O2851       O  0.61261330  0.66800530  0.54092134    -0.78800
C2852       C  0.57520000  0.58246858  0.59701345     1.02100
Fe2853     Fe  0.55283543  0.94032154  0.55656151     1.65800
Fe2854     Fe  0.56406921  0.93683705  0.62824474     1.73200
Fe2855     Fe  0.58567286  0.91057455  0.57635320     1.54400
O2856       O  0.56063779  0.88864516  0.54312384    -0.82500
O2857       O  0.60265302  0.95136396  0.63661919    -0.80800
O2858       O  0.53574357  0.90550125  0.53598131    -0.85000
O2859       O  0.58632090  0.95533923  0.53148996    -0.79900
O2860       O  0.56215081  0.88067754  0.60422048    -0.81600
O2861       O  0.57270351  0.97462168  0.62029444    -0.84400
C2862       C  0.60771704  0.95567949  0.53231394     0.96400
C2863       C  0.54113241  0.88799715  0.53187228     1.03800
O2864       O  0.56755854  0.92931675  0.58713778    -1.13400
O2865       O  0.52451036  0.92289097  0.62504672    -0.75800
O2866       O  0.51874884  0.92795632  0.57861460    -0.79300
O2867       O  0.61102755  0.94027178  0.54808839    -0.80000
C2868       C  0.51021925  0.92179006  0.60436938     0.95300
O2869       O  0.56634747  0.97595509  0.57354026    -0.77900
O2870       O  0.55571934  0.90039392  0.64159094    -0.83100
C2871       C  0.61788094  0.94345106  0.62914739     0.97900
C2872       C  0.55419971  0.88041781  0.63007993     1.03800
O2873       O  0.61295338  0.92762472  0.60854339    -0.78800
C2874       C  0.57262369  0.98680332  0.59792669     1.02100
Fe2875     Fe  0.62288334  0.55673261  0.36125704     1.65800
Fe2876     Fe  0.60815369  0.55116217  0.43372180     1.73200
Fe2877     Fe  0.67149336  0.58089654  0.41189698     1.54400
O2878       O  0.67852199  0.55828428  0.38330306    -0.82500
O2879       O  0.62744004  0.58585078  0.45565316    -0.80800
O2880       O  0.64895127  0.54558879  0.34905615    -0.85000
O2881       O  0.64845115  0.59387209  0.34932293    -0.79900
O2882       O  0.66700695  0.55421570  0.44388456    -0.81600
O2883       O  0.58668598  0.56454571  0.41440429    -0.84400
C2884       C  0.66984092  0.61184474  0.35853738     0.96400
C2885       C  0.66882252  0.54663135  0.35964109     1.03800
O2886       O  0.63419917  0.56297958  0.40224211    -1.13400
O2887       O  0.58531207  0.51577627  0.41497741    -0.75800
O2888       O  0.59582244  0.51834389  0.36826976    -0.79300
O2889       O  0.68082829  0.60940397  0.38075902    -0.80000
C2890       C  0.58247768  0.50564994  0.39006987     0.95300
O2891       O  0.59526457  0.56756123  0.36727788    -0.77900
O2892       O  0.62550372  0.53492947  0.45692662    -0.83100
C2893       C  0.65012164  0.60525089  0.45601198     0.97900
C2894       C  0.64773449  0.53733984  0.45836664     1.03800
O2895       O  0.66878287  0.60606619  0.44156795    -0.78800
C2896       C  0.58301082  0.56946186  0.38888601     1.02100
Fe2897     Fe  0.93619027  0.87136536  0.36782250     1.65800
Fe2898     Fe  0.94603834  0.88472685  0.43931933     1.73200
Fe2899     Fe  0.91535825  0.82342342  0.41693203     1.54400
O2900       O  0.88824776  0.81378989  0.38347962    -0.82500
O2901       O  0.96773941  0.86981594  0.45399381    -0.80800
O2902       O  0.89671553  0.84989589  0.36140258    -0.85000
O2903       O  0.94095335  0.84151846  0.35112421    -0.79900
O2904       O  0.88925868  0.82649214  0.44500226    -0.81600
O2905       O  0.97790572  0.91010084  0.41524727    -0.84400
C2906       C  0.94555800  0.82519450  0.36275903     0.96400
C2907       C  0.88204135  0.82597373  0.36580106     1.03800
O2908       O  0.93230653  0.85980445  0.40802082    -1.13400
O2909       O  0.92585275  0.90198746  0.42631262    -0.75800
O2910       O  0.93273180  0.90347888  0.37861181    -0.79300
O2911       O  0.94040172  0.81927236  0.38933217    -0.80000
C2912       C  0.92776312  0.91202662  0.40173111     0.95300
O2913       O  0.97596847  0.89323910  0.37173380    -0.77900
O2914       O  0.91600200  0.86285155  0.46792324    -0.83100
C2915       C  0.96223411  0.84703831  0.45906753     0.97900
C2916       C  0.89377209  0.84327559  0.46453428     1.03800
O2917       O  0.94105500  0.82769838  0.45070903    -0.78800
C2918       C  0.98835382  0.90970523  0.39131084     1.02100
Fe2919     Fe  0.87648214  0.93613583  0.62713394     1.65800
Fe2920     Fe  0.89117846  0.94116735  0.55488975     1.73200
Fe2921     Fe  0.82772729  0.90977741  0.57713687     1.54400
O2922       O  0.81933815  0.88106898  0.60777436    -0.82500
O2923       O  0.87222930  0.95380461  0.52947557    -0.80800
O2924       O  0.85024066  0.89861477  0.64069703    -0.85000
O2925       O  0.85100504  0.94899336  0.63773073    -0.79900
O2926       O  0.83218102  0.88609942  0.54624544    -0.81600
O2927       O  0.91149486  0.97738421  0.57102230    -0.84400
C2928       C  0.82908208  0.94441882  0.62880542     0.96400
C2929       C  0.82945340  0.87953221  0.63127571     1.03800
O2930       O  0.86504626  0.92896180  0.58649928    -1.13400
O2931       O  0.91498796  0.93171209  0.57553723    -0.75800
O2932       O  0.90346085  0.92415078  0.62170843    -0.79300
O2933       O  0.81822257  0.92971363  0.60728662    -0.80000
C2934       C  0.91751755  0.92488306  0.60039838     0.95300
O2935       O  0.90438989  0.97457283  0.61833268    -0.77900
O2936       O  0.87431129  0.90594838  0.53569977    -0.83100
C2937       C  0.85085100  0.95316718  0.53026223     0.97900
C2938       C  0.85176323  0.88677582  0.53400463     1.03800
O2939       O  0.83210770  0.93773360  0.54658720    -0.78800
C2940       C  0.91583107  0.98769245  0.59575813     1.02100
Fe2941     Fe  0.73049545  0.95290272  0.31856058     1.65800
Fe2942     Fe  0.72813664  0.92376087  0.25504455     1.73200
Fe2943     Fe  0.75175506  0.49068351  0.25397798     1.54400
O2944       O  0.72949562  0.50224482  0.27732504    -0.82500
O2945       O  0.75824727  0.94044060  0.22551543    -0.80800
O2946       O  0.71754511  0.97865088  0.31951160    -0.85000
O2947       O  0.76788886  0.98138282  0.32405619    -0.79900
O2948       O  0.72132608  0.97138572  0.22298358    -0.81600
O2949       O  0.75079636  0.91589688  0.28151685    -0.84400
C2950       C  0.78387493  0.50179702  0.31022010     0.96400
C2951       C  0.71647665  0.49539165  0.30071571     1.03800
O2952       O  0.73618980  0.95502483  0.27603257    -1.13400
O2953       O  0.69619560  0.90160399  0.28012233    -0.75800
O2954       O  0.69241100  0.92333597  0.31692569    -0.79300
O2955       O  0.78120258  0.50742572  0.28435633    -0.80000
C2956       C  0.68385510  0.90304962  0.30185203     0.95300
O2957       O  0.74241604  0.92651627  0.32483546    -0.77900
O2958       O  0.70463921  0.92904017  0.22741323    -0.83100
C2959       C  0.77389791  0.96284842  0.21656665     0.97900
C2960       C  0.70561932  0.94829473  0.21512864     1.03800
O2961       O  0.77501464  0.98265360  0.22771745    -0.78800
C2962       C  0.75051228  0.91469146  0.30902048     1.02100
Fe2963     Fe  0.62089588  0.87797062  0.07772700     1.65800
Fe2964     Fe  0.60163505  0.88919861  0.01476183     1.73200
Fe2965     Fe  0.59030401  0.91121217  0.07828300     1.54400
O2966       O  0.56594589  0.87919841  0.10401918    -0.82500
O2967       O  0.60691939  0.92592936  0.00951743    -0.80800
O2968       O  0.59479878  0.86711796  0.11308653    -0.85000
O2969       O  0.64555544  0.91345168  0.09349605    -0.79900
O2970       O  0.56000724  0.90064057  0.04829373    -0.81600
O2971       O  0.64082116  0.90503576  0.00891522    -0.84400
C2972       C  0.63903683  0.92272613  0.11404644     0.96400
C2973       C  0.57355083  0.86651416  0.11893579     1.03800
O2974       O  0.60359362  0.89212661  0.05682971    -1.13400
O2975       O  0.59700936  0.85237112  0.01461760    -0.75800
O2976       O  0.59794013  0.84210910  0.06077540    -0.79300
O2977       O  0.61807891  0.92337405  0.11244201    -0.80000
C2978       C  0.59494429  0.83653163  0.03404814     0.95300
O2979       O  0.64907703  0.88733277  0.04616445    -0.77900
O2980       O  0.56259701  0.87333682  0.01739167    -0.83100
C2981       C  0.61608408  0.94573755  0.02575581     0.97900
C2982       C  0.55074473  0.88410843  0.02774537     1.03800
O2983       O  0.61454594  0.94387495  0.05344945    -0.78800
C2984       C  0.65559462  0.89957210  0.02243159     1.02100
Fe2985     Fe  0.53645420  0.76229173  0.31296552     1.65800
Fe2986     Fe  0.56349724  0.77233216  0.24530525     1.73200
Fe2987     Fe  0.99786721  0.74483281  0.25006263     1.54400
O2988       O  0.98284010  0.71264665  0.27744567    -0.82500
O2989       O  0.55350412  0.79309134  0.21862667    -0.80800
O2990       O  0.50586433  0.72548516  0.31764833    -0.85000
O2991       O  0.51317451  0.77809785  0.31911163    -0.79900
O2992       O  0.00158582  0.72232762  0.21771559    -0.81600
O2993       O  0.58497553  0.80498712  0.26897872    -0.84400
C2994       C  0.99693339  0.77776702  0.30230925     0.96400
C2995       C  0.98920911  0.70893189  0.30250693     1.03800
O2996       O  0.53274323  0.76074449  0.27008752    -1.13400
O2997       O  0.57777244  0.75365240  0.26892013    -0.75800
O2998       O  0.56072675  0.74702511  0.31323584    -0.79300
O2999       O  0.98774096  0.76490680  0.27922405    -0.80000
C3000       C  0.57613652  0.74607212  0.29480146     0.95300
O3001       O  0.56846957  0.79902144  0.31377453    -0.77900
O3002       O  0.54679552  0.74102538  0.21849449    -0.83100
C3003       C  0.53389146  0.79514733  0.21327451     0.97900
C3004       C  0.52431376  0.72661110  0.20894531     1.03800
O3005       O  0.51168127  0.77998970  0.22458153    -0.78800
C3006       C  0.58594909  0.81196538  0.29511077     1.02100
Fe3007     Fe  0.60338213  0.69901985  0.01951825     1.65800
Fe3008     Fe  0.60933713  0.72975555  0.08198607     1.73200
Fe3009     Fe  0.58223382  0.66519074  0.08281305     1.54400
O3010       O  0.55468137  0.64758056  0.04997122    -0.82500
O3011       O  0.62947962  0.72230073  0.11155676    -0.80800
O3012       O  0.56442063  0.67641590  0.01445453    -0.85000
O3013       O  0.60718713  0.66716574  0.01782941    -0.79900
O3014       O  0.55614908  0.67248987  0.10523016    -0.81600
O3015       O  0.64320133  0.74843829  0.05769138    -0.84400
C3016       C  0.61155974  0.65455238  0.03628257     0.96400
C3017       C  0.54921711  0.65508996  0.02660108     1.03800
O3018       O  0.59835212  0.69781124  0.06176997    -1.13400
O3019       O  0.58897932  0.73957415  0.05486789    -0.75800
O3020       O  0.60066942  0.73152154  0.01230713    -0.79300
O3021       O  0.60664848  0.65453804  0.06309644    -0.80000
C3022       C  0.59253198  0.74333677  0.02796682     0.95300
O3023       O  0.64293466  0.72158032  0.02388212    -0.77900
O3024       O  0.57784629  0.71507057  0.10901308    -0.83100
C3025       C  0.62543513  0.70249605  0.12523618     0.97900
C3026       C  0.55866611  0.69333424  0.11521129     1.03800
O3027       O  0.60813497  0.67982852  0.11786957    -0.78800
C3028       C  0.65472151  0.74189111  0.03903498     1.02100
Fe3029     Fe  0.78936534  0.88675572  0.01145888     1.65800
Fe3030     Fe  0.76097998  0.88265814  0.07724497     1.73200
Fe3031     Fe  0.82661282  0.91120007  0.07305111     1.54400
O3032       O  0.84115837  0.89169055  0.04905165    -0.82500
O3033       O  0.77561820  0.91591483  0.10162592    -0.80800
O3034       O  0.81659540  0.87612644  0.01003066    -0.85000
O3035       O  0.81649839  0.92432802  0.00266498    -0.79900
O3036       O  0.81525914  0.88334370  0.10640863    -0.81600
O3037       O  0.74611480  0.89816738  0.04898984    -0.84400
C3038       C  0.83394902  0.94333324  0.01646694     0.96400
C3039       C  0.83517430  0.87924183  0.02537382     1.03800
O3040       O  0.79241973  0.89351376  0.05401771    -1.13400
O3041       O  0.74201470  0.84725102  0.05715122    -0.75800
O3042       O  0.76252782  0.84828006  0.01618131    -0.79300
O3043       O  0.83995077  0.94113205  0.04240751    -0.80000
C3044       C  0.74520014  0.83622025  0.03520679     0.95300
O3045       O  0.76080366  0.89599112  0.00517825    -0.77900
O3046       O  0.77241057  0.86644479  0.10845197    -0.83100
C3047       C  0.79784878  0.93231010  0.11073910     0.97900
C3048       C  0.79317706  0.86880918  0.11840717     1.03800
O3049       O  0.81824954  0.93335199  0.10096554    -0.78800
C3050       C  0.74649400  0.90052746  0.02166816     1.02100
Fe3051     Fe  0.71916059  0.79016828  0.25977587     1.65800
Fe3052     Fe  0.72713240  0.76590027  0.32117040     1.73200
Fe3053     Fe  0.74470084  0.75243950  0.25490348     1.54400
O3054       O  0.71063561  0.73355132  0.23066486    -0.82500
O3055       O  0.76426032  0.77191136  0.32384938    -0.80800
O3056       O  0.70819412  0.76815131  0.22222485    -0.85000
O3057       O  0.75609734  0.81246997  0.24450762    -0.79900
O3058       O  0.72978443  0.71962253  0.28138857    -0.81600
O3059       O  0.74389851  0.80496231  0.32859252    -0.84400
C3060       C  0.76407718  0.80524694  0.22308674     0.96400
C3061       C  0.70074563  0.74480856  0.21711684     1.03800
O3062       O  0.73005462  0.76904270  0.27904285    -1.13400
O3063       O  0.68903289  0.75923345  0.32130399    -0.75800
O3064       O  0.68229088  0.76796788  0.27623962    -0.79300
O3065       O  0.76081225  0.78254313  0.22299469    -0.80000
C3066       C  0.67401564  0.75840376  0.30133089     0.95300
O3067       O  0.72841473  0.81657646  0.29224985    -0.77900
O3068       O  0.71118080  0.72695040  0.31953731    -0.83100
C3069       C  0.78241363  0.77505403  0.30653465     0.97900
C3070       C  0.71574402  0.71211305  0.30428690     1.03800
O3071       O  0.77884552  0.77030636  0.27926624    -0.78800
C3072       C  0.74088577  0.82152102  0.31546924     1.02100
Fe3073     Fe  0.90176881  0.62561224  0.90362060     1.65800
Fe3074     Fe  0.90119855  0.60149581  0.96987894     1.73200
Fe3075     Fe  0.92014882  0.58065286  0.90881184     1.54400
O3076       O  0.89128715  0.56621182  0.87692928    -0.82500
O3077       O  0.93782990  0.60807343  0.97743340    -0.80800
O3078       O  0.88181136  0.59741100  0.87373994    -0.85000
O3079       O  0.93543413  0.63950797  0.88037764    -0.79900
O3080       O  0.89689755  0.54840239  0.93402484    -0.81600
O3081       O  0.91488558  0.64040625  0.97470927    -0.84400
C3082       C  0.94952092  0.63075421  0.87142843     0.96400
C3083       C  0.87919605  0.57617768  0.86529105     1.03800
O3084       O  0.90767194  0.60244557  0.92747053    -1.13400
O3085       O  0.86409736  0.59583246  0.96574543    -0.75800
O3086       O  0.86732193  0.61483209  0.92356430    -0.79300
O3087       O  0.94615315  0.60919727  0.87980323    -0.80000
C3088       C  0.85525134  0.60453534  0.94681990     0.95300
O3089       O  0.92051083  0.65702120  0.93068309    -0.77900
O3090       O  0.88591077  0.56233662  0.97349747    -0.83100
C3091       C  0.95387900  0.60345014  0.96433827     0.97900
C3092       C  0.88611629  0.54460182  0.95880435     1.03800
O3093       O  0.94967733  0.59301334  0.93921554    -0.78800
C3094       C  0.92090412  0.65918169  0.95802640     1.02100
Fe3095     Fe  0.96070111  0.72789171  0.68821103     1.65800
Fe3096     Fe  0.94091794  0.71193420  0.75839918     1.73200
Fe3097     Fe  0.50461627  0.74935530  0.74540750     1.54400
O3098       O  0.51628841  0.72923551  0.71794644    -0.82500
O3099       O  0.95682283  0.74285816  0.78714799    -0.80800
O3100       O  0.98987477  0.72040754  0.67665033    -0.85000
O3101       O  0.98448815  0.76670044  0.68204127    -0.79900
O3102       O  0.49951469  0.72291008  0.77840303    -0.81600
O3103       O  0.91998059  0.72724059  0.74224646    -0.84400
C3104       C  0.50577153  0.78299530  0.69299880     0.96400
C3105       C  0.50955040  0.72006871  0.69244929     1.03800
O3106       O  0.96888849  0.72961910  0.72989770    -1.13400
O3107       O  0.92023837  0.67925425  0.73296644    -0.75800
O3108       O  0.93543746  0.68893996  0.68774703    -0.79300
O3109       O  0.51595039  0.77881077  0.71478956    -0.80000
C3110       C  0.91942652  0.67362255  0.70623464     0.95300
O3111       O  0.92927235  0.73349299  0.69495158    -0.77900
O3112       O  0.95814773  0.69375228  0.77758059    -0.83100
C3113       C  0.97710962  0.76490313  0.78849378     0.97900
C3114       C  0.98114384  0.70093819  0.78467697     1.03800
O3115       O  0.49509828  0.77100629  0.77378665    -0.78800
C3116       C  0.91511127  0.73128441  0.71686696     1.02100
Fe3117     Fe  0.90148970  0.78967877  0.97900199     1.65800
Fe3118     Fe  0.89135951  0.76221081  0.91263797     1.73200
Fe3119     Fe  0.91736605  0.82703905  0.91781994     1.54400
O3120       O  0.89358956  0.83561970  0.94279874    -0.82500
O3121       O  0.92246031  0.77926641  0.88390359    -0.80800
O3122       O  0.89249083  0.81815411  0.98543207    -0.85000
O3123       O  0.94012056  0.81514651  0.98170903    -0.79900
O3124       O  0.88895590  0.81401052  0.88553411    -0.81600
O3125       O  0.91170313  0.74905669  0.93537381    -0.84400
C3126       C  0.95413027  0.83711641  0.97062444     0.96400
C3127       C  0.88754201  0.83210369  0.96953315     1.03800
O3128       O  0.90347407  0.79304847  0.93631364    -1.13400
O3129       O  0.85832672  0.74197697  0.93828525    -0.75800
O3130       O  0.86244446  0.76393815  0.97899104    -0.79300
O3131       O  0.94722778  0.84459586  0.94834825    -0.80000
C3132       C  0.84897069  0.74600627  0.96142203     0.95300
O3133       O  0.90964439  0.76015584  0.98086048    -0.77900
O3134       O  0.86970167  0.77139769  0.88672521    -0.83100
C3135       C  0.94038265  0.80183036  0.87749648     0.97900
C3136       C  0.87174329  0.79185868  0.87681620     1.03800
O3137       O  0.94239454  0.82181910  0.88974242    -0.78800
C3138       C  0.91433889  0.74743066  0.96228528     1.02100
Fe3139     Fe  0.71227443  0.60446427  0.97678265     1.65800
Fe3140     Fe  0.73142880  0.62003028  0.90639913     1.73200
Fe3141     Fe  0.66766772  0.58185145  0.92155270     1.54400
O3142       O  0.65800630  0.55237378  0.95155593    -0.82500
O3143       O  0.71359534  0.63753018  0.88730931    -0.80800
O3144       O  0.69056717  0.56519290  0.98259096    -0.85000
O3145       O  0.68132582  0.60850406  0.98883603    -0.79900
O3146       O  0.67687842  0.56083280  0.89197014    -0.81600
O3147       O  0.75080699  0.65188046  0.93141847    -0.84400
C3148       C  0.66254836  0.60849569  0.97644602     0.96400
C3149       C  0.66890202  0.54823047  0.97268422     1.03800
O3150       O  0.70374686  0.60204379  0.93505883    -1.13400
O3151       O  0.75300243  0.60575342  0.92274720    -0.75800
O3152       O  0.74503332  0.60157605  0.97034980    -0.79300
O3153       O  0.65584026  0.60062830  0.95055324    -0.80000
C3154       C  0.75843808  0.60273532  0.94826310     0.95300
O3155       O  0.73539869  0.64424306  0.97634567    -0.77900
O3156       O  0.71661108  0.58996027  0.87753928    -0.83100
C3157       C  0.69053103  0.63015986  0.88044711     0.97900
C3158       C  0.69701335  0.56761765  0.87632373     1.03800
O3159       O  0.67166247  0.60885575  0.88948299    -0.78800
C3160       C  0.75076748  0.65927531  0.95707220     1.02100
Fe3161     Fe  0.76794478  0.54220007  0.67859505     1.65800
Fe3162     Fe  0.77554153  0.56977163  0.74496336     1.73200
Fe3163     Fe  0.75406196  0.00644921  0.73875176     1.54400
O3164       O  0.71975978  0.98829942  0.71515226    -0.82500
O3165       O  0.79360149  0.55992332  0.77591870    -0.80800
O3166       O  0.73254328  0.50921980  0.67441039    -0.85000
O3167       O  0.78773718  0.52255408  0.67517700    -0.79900
O3168       O  0.73499000  0.01479052  0.77284858    -0.81600
O3169       O  0.81046836  0.58943315  0.72372706    -0.84400
C3170       C  0.78427960  0.00105019  0.68538983     0.96400
C3171       C  0.71538854  0.99062264  0.68862470     1.03800
O3172       O  0.76559187  0.53929735  0.72125242    -1.13400
O3173       O  0.75938356  0.58418810  0.71788826    -0.75800
O3174       O  0.74866926  0.56262952  0.67627469    -0.79300
O3175       O  0.77120286  0.99276670  0.70882780    -0.80000
C3176       C  0.74890912  0.57934892  0.69327306     0.95300
O3177       O  0.80377465  0.57551894  0.67797719    -0.77900
O3178       O  0.74130521  0.55288161  0.76809247    -0.83100
C3179       C  0.79991368  0.54287348  0.77843599     0.97900
C3180       C  0.73051512  0.53181906  0.78169345     1.03800
O3181       O  0.78842041  0.02277060  0.76248864    -0.78800
C3182       C  0.81814420  0.59029617  0.69781242     1.02100
Fe3183     Fe  0.77000463  0.70471195  0.75744486     1.65800
Fe3184     Fe  0.76882937  0.72555728  0.68944930     1.73200
Fe3185     Fe  0.74912197  0.74705059  0.74861894     1.54400
O3186       O  0.72744698  0.72118061  0.78287456    -0.82500
O3187       O  0.78742257  0.76494233  0.68570882    -0.80800
O3188       O  0.73513352  0.68898126  0.77911483    -0.85000
O3189       O  0.78823341  0.73440725  0.78701217    -0.79900
O3190       O  0.71661348  0.72817741  0.72181505    -0.81600
O3191       O  0.80481062  0.72872250  0.69302200    -0.84400
C3192       C  0.79375376  0.75767697  0.78957759     0.96400
C3193       C  0.72291673  0.69894206  0.79043528     1.03800
O3194       O  0.76271988  0.72580966  0.73171257    -1.13400
O3195       O  0.75144967  0.68599171  0.68674585    -0.75800
O3196       O  0.75399281  0.67308300  0.73088899    -0.79300
O3197       O  0.78166355  0.76665317  0.77571421    -0.80000
C3198       C  0.74846316  0.66862041  0.70429365     0.95300
O3199       O  0.80517873  0.71665414  0.73840504    -0.77900
O3200       O  0.73329409  0.72157002  0.68086497    -0.83100
C3201       C  0.78249651  0.78161372  0.69582976     0.97900
C3202       C  0.71463986  0.72059129  0.69543695     1.03800
O3203       O  0.76774554  0.77700969  0.71792997    -0.78800
C3204       C  0.81558142  0.72395663  0.71357785     1.02100
C3205       C  0.74989619  0.61424699  0.66438250    -0.02700
C3206       C  0.73733322  0.59489488  0.68521768     0.07000
C3207       C  0.72145757  0.59723155  0.70613696    -0.02800
C3208       C  0.72315172  0.62096801  0.71096785    -0.02800
C3209       C  0.73982799  0.64227938  0.69355658     0.07100
C3210       C  0.75183280  0.63833568  0.66884912    -0.03000
Br3211     Br  0.77468116  0.66646122  0.64393312    -0.01500
Br3212     Br  0.76617448  0.60813862  0.63140749    -0.01600
Br3213     Br  0.70500617  0.62435934  0.74387920    -0.01600
Br3214     Br  0.70011318  0.56843354  0.73067544    -0.01600
C3215       C  0.69894221  0.67387326  0.86620233    -0.02700
C3216       C  0.68699032  0.64736008  0.86000913     0.07000
C3217       C  0.67811714  0.63935810  0.83159972    -0.02800
C3218       C  0.68542895  0.65779298  0.80930065    -0.02800
C3219       C  0.70410815  0.68374969  0.81431304     0.07100
C3220       C  0.70900133  0.69211042  0.84342272    -0.03000
Br3221     Br  0.73048886  0.72799421  0.85211022    -0.01500
Br3222     Br  0.69930754  0.68440429  0.90579296    -0.01600
Br3223     Br  0.66834636  0.64842409  0.77269750    -0.01600
Br3224     Br  0.65732523  0.60344814  0.82278144    -0.01600
C3225       C  0.69199408  0.53003609  0.80791674    -0.02700
C3226       C  0.71603892  0.53090151  0.80869004     0.07000
C3227       C  0.72955167  0.53741029  0.83500159    -0.02800
C3228       C  0.72103080  0.54615916  0.85869032    -0.02800
C3229       C  0.69937253  0.54941680  0.85617272     0.07100
C3230       C  0.68375112  0.53945487  0.83152887    -0.03000
Br3231     Br  0.65197229  0.54005012  0.82951834    -0.01500
Br3232     Br  0.67011611  0.51564097  0.77500547    -0.01600
Br3233     Br  0.73973374  0.55438303  0.89446571    -0.01600
Br3234     Br  0.76138726  0.53694746  0.83791115    -0.01600
C3235       C  0.78536893  0.69217345  0.99003216     0.02700
C3236       C  0.77108227  0.68606632  0.96395699     0.07000
C3237       C  0.78015217  0.70465322  0.94157051    -0.02800
C3238       C  0.80448307  0.72663868  0.94350514    -0.02800
C3239       C  0.82081459  0.72960350  0.96640195     0.07100
C3240       C  0.81019400  0.71436542  0.99132060    -0.03000
Br3241     Br  0.82916953  0.72415409  0.02698038    -0.01500
Br3242     Br  0.77309026  0.66922126  0.02278138    -0.01600
Br3243     Br  0.81543986  0.75328728  0.91502524    -0.01600
Br3244     Br  0.76152365  0.69953992  0.90608258    -0.01600
C3245       C  0.85514135  0.77567585  0.82751186    -0.02700
C3246       C  0.85427218  0.78879848  0.85249354     0.07000
C3247       C  0.83538815  0.79641035  0.85429703    -0.02800
C3248       C  0.81573722  0.78793472  0.83291197    -0.02800
C3249       C  0.81654724  0.77406409  0.80842657     0.07100
C3250       C  0.83837647  0.77129700  0.80466595    -0.03000
Br3251     Br  0.84719732  0.76408378  0.76718114    -0.01500
Br3252     Br  0.87733943  0.76097961  0.82482699    -0.01600
Br3253     Br  0.78790983  0.79494748  0.83728928    -0.01600
Br3254     Br  0.83509838  0.81633306  0.88702315    -0.01600
C3255       C  0.86458620  0.60464710  0.70224637    -0.02700
C3256       C  0.84535254  0.60899709  0.69132056     0.07000
C3257       C  0.85234452  0.63282003  0.67888694    -0.02800
C3258       C  0.87830028  0.65262494  0.67901681    -0.02800
C3259       C  0.89646042  0.64995630  0.69566609     0.07100
C3260       C  0.88970909  0.62549717  0.70628889    -0.03000
Br3261     Br  0.91406467  0.62040899  0.72720774    -0.01500
Br3262     Br  0.85584816  0.57024119  0.71285242    -0.01600
Br3263     Br  0.88802575  0.68396952  0.65838930    -0.01600
Br3264     Br  0.82620044  0.63956214  0.66516946    -0.01600
C3265       C  0.88744225  0.74949306  0.69981356    -0.02700
C3266       C  0.88984757  0.72972173  0.71288164     0.07000
C3267       C  0.86735273  0.70727573  0.72261724    -0.02800
C3268       C  0.84298333  0.70461876  0.71924347    -0.02800
C3269       C  0.84074486  0.72534426  0.70910737     0.07100
C3270       C  0.86293496  0.74764651  0.69870733    -0.03000
Br3271     Br  0.86013951  0.77634650  0.68531246    -0.01500
Br3272     Br  0.91775612  0.77975055  0.68552252    -0.01600
Br3273     Br  0.81233978  0.67201321  0.72834910    -0.01600
Br3274     Br  0.86906874  0.67976641  0.74170118    -0.01600
C3275       C  0.95103556  0.80407650  0.82464276    -0.02700
C3276       C  0.95831602  0.80394480  0.85345779     0.07000
C3277       C  0.97882013  0.79942196  0.85841841    -0.02800
C3278       C  0.98811833  0.79008252  0.83575879    -0.02800
C3279       C  0.97597235  0.78403466  0.80852994     0.07100
C3280       C  0.95905955  0.79328846  0.80237609    -0.03000
Br3281     Br  0.94694230  0.79119051  0.76348287    -0.01500
Br3282     Br  0.93109761  0.82013358  0.81600519    -0.01600
Br3283     Br  0.01774085  0.78649054  0.84163729    -0.01600
Br3284     Br  0.99467895  0.80736016  0.89580757    -0.01600
C3285       C  0.80843917  0.58348927  0.96388705    -0.02700
C3286       C  0.83072895  0.60459300  0.95159531     0.07000
C3287       C  0.82936727  0.62615507  0.94188534    -0.02800
C3288       C  0.80569951  0.62543402  0.94181881    -0.02800
C3289       C  0.78314640  0.60355113  0.95194640     0.07100
C3290       C  0.78462766  0.58301608  0.96405193    -0.03000
Br3291     Br  0.75378553  0.55370772  0.97917744    -0.01500
Br3292     Br  0.80973247  0.55464230  0.97924232    -0.01600
Br3293     Br  0.80451492  0.65498005  0.92765695    -0.01600
Br3294     Br  0.85974805  0.65758486  0.92886068    -0.01600
C3295       C  0.84080082  0.53899465  0.83972805    -0.02700
C3296       C  0.86201404  0.56436969  0.83980299     0.07000
C3297       C  0.86442411  0.58098889  0.81719399    -0.02800
C3298       C  0.84405087  0.57421286  0.79797909    -0.02800
C3299       C  0.82215788  0.54903551  0.79803438     0.07100
C3300       C  0.82138146  0.53106432  0.81828687    -0.03000
Br3301     Br  0.79255550  0.49634857  0.81890402    -0.01500
Br3302     Br  0.83732563  0.51568279  0.86998258    -0.01600
Br3303     Br  0.84646752  0.60129561  0.77381655    -0.01600
Br3304     Br  0.89591534  0.61389440  0.81276585    -0.01600
C3305       C  0.90205723  0.70576675  0.98584469    -0.02700
C3306       C  0.92101170  0.72822115  0.97195254     0.07000
C3307       C  0.94408770  0.72968431  0.96242684    -0.02800
C3308       C  0.94589702  0.70731759  0.96114635    -0.02800
C3309       C  0.92493078  0.68369595  0.97039578     0.07100
C3310       C  0.90429059  0.68363442  0.98573122    -0.03000
Br3311     Br  0.87732561  0.65270329  0.00371165    -0.01500
Br3312     Br  0.87153820  0.70426381  0.00194983    -0.01600
Br3313     Br  0.97695332  0.70897965  0.94708242    -0.01600
Br3314     Br  0.97301410  0.76238166  0.95173313    -0.01600
C3315       C  0.97447539  0.65763996  0.79790824    -0.02700
C3316       C  0.98473306  0.68378389  0.80497001     0.07000
C3317       C  0.99292690  0.69153198  0.83360372    -0.02800
C3318       C  0.98591727  0.67293629  0.85551416    -0.02800
C3319       C  0.96947664  0.64675395  0.84932467     0.07100
C3320       C  0.96625453  0.63896013  0.82005971    -0.03000
Br3321     Br  0.94965736  0.60301173  0.81051638    -0.01500
Br3322     Br  0.97327766  0.64821944  0.75793907    -0.01600
Br3323     Br  0.99818798  0.68271051  0.89432053    -0.01600
Br3324     Br  0.01228776  0.72720340  0.84329561    -0.01600
C3325       C  0.88935814  0.51118626  0.98740341    -0.02700
C3326       C  0.87405709  0.51868124  0.97209757     0.07000
C3327       C  0.84714009  0.50252632  0.97204326    -0.02800
C3328       C  0.83359892  0.97493040  0.98024553    -0.02800
C3329       C  0.84705482  0.96905654  0.00141165     0.07100
C3330       C  0.87291604  0.98808304  0.00773107    -0.03000
Br3331     Br  0.89344416  0.98125391  0.03422168    -0.01500
Br3332     Br  0.92649382  0.53221556  0.98501974    -0.01600
Br3333     Br  0.79800173  0.95107819  0.97029078    -0.01600
Br3334     Br  0.82658776  0.51154038  0.94851593    -0.01600
C3335       C  0.83856908  0.84079012  0.01375396    -0.02700
C3336       C  0.85014814  0.86768702  0.01423196     0.07000
C3337       C  0.87352002  0.88295805  0.99905774    -0.02800
C3338       C  0.88534196  0.87137417  0.98336901    -0.02800
C3339       C  0.87404253  0.84442780  0.98332720     0.07100
C3340       C  0.85041031  0.82918424  0.99832982    -0.03000
Br3341     Br  0.83284014  0.79226449  0.99591596    -0.01500
Br3342     Br  0.80608602  0.81982228  0.03392776    -0.01600
Br3343     Br  0.91684468  0.89248338  0.96181537    -0.01600
Br3344     Br  0.88870156  0.91974133  0.99895679    -0.01600
C3345       C  0.79207532  0.82245952  0.17653724    -0.02700
C3346       C  0.77447437  0.82303302  0.19716673     0.07000
C3347       C  0.76572351  0.84076262  0.19245279    -0.02800
C3348       C  0.77456282  0.85732685  0.16841379    -0.02800
C3349       C  0.79023889  0.85522451  0.14664334     0.07100
C3350       C  0.79970768  0.83830773  0.15134522    -0.03000
Br3351     Br  0.82273785  0.83652319  0.12308768    -0.01500
Br3352     Br  0.80597590  0.80014269  0.18239818    -0.01600
Br3353     Br  0.76534050  0.88381401  0.16595961    -0.01600
Br3354     Br  0.73915972  0.84156955  0.21649300    -0.01600
C3355       C  0.50095150  0.62953085  0.02825275    -0.02700
C3356       C  0.52417276  0.63838586  0.01254540     0.07000
C3357       C  0.52347609  0.63248386  0.98277351    -0.02800
C3358       C  0.00247966  0.62319631  0.96378383    -0.02800
C3359       C  0.97875589  0.61135722  0.97923851     0.07100
C3360       C  0.97905382  0.60916560  0.00978516    -0.03000
Br3361     Br  0.94716872  0.58865715  0.03132483    -0.01500
Br3362     Br  0.50162280  0.63825142  0.06881301    -0.01600
Br3363     Br  0.00335243  0.62514664  0.92191130    -0.01600
Br3364     Br  0.55532245  0.64252442  0.96170369    -0.01600
C3365       C  0.65114709  0.65416673  0.02253570    -0.02700
C3366       C  0.62411856  0.64069796  0.02529941     0.07000
C3367       C  0.60936562  0.61647446  0.01216901    -0.02800
C3368       C  0.62179174  0.60537755  0.99676226    -0.02800
C3369       C  0.64892947  0.61926860  0.99308977     0.07100
C3370       C  0.66351358  0.64375216  0.00609054    -0.03000
Br3371     Br  0.70029311  0.66449314  0.99955135    -0.01500
Br3372     Br  0.67111027  0.68793087  0.03960187    -0.01600
Br3373     Br  0.60162865  0.57101934  0.98159951    -0.01600
Br3374     Br  0.57211969  0.59937320  0.01400144    -0.01600
C3375       C  0.69838438  0.76955071  0.05951089    -0.02700
C3376       C  0.68270432  0.75978383  0.03485322     0.07000
C3377       C  0.69260722  0.77153076  0.00775248    -0.02800
C3378       C  0.71484364  0.79621817  0.00672738    -0.02800
C3379       C  0.72776099  0.80809391  0.03271586     0.07100
C3380       C  0.72134582  0.79325082  0.05812738    -0.03000
Br3381     Br  0.74398165  0.80541945  0.09112726    -0.01500
Br3382     Br  0.68796939  0.75122366  0.09570037    -0.01600
Br3383     Br  0.72593664  0.81394319  0.97022574    -0.01600
Br3384     Br  0.67449343  0.75508085  0.97260664    -0.01600
C3385       C  0.65947649  0.70014399  0.15497685    -0.02700
C3386       C  0.64089136  0.70769461  0.15193515     0.07000
C3387       C  0.64072186  0.72559146  0.17152868    -0.02800
C3388       C  0.66099723  0.73877886  0.19111305    -0.02800
C3389       C  0.67990565  0.73127896  0.19485997     0.07100
C3390       C  0.67849587  0.71131670  0.17686872    -0.03000
Br3391     Br  0.70409940  0.70100469  0.17944455    -0.01500
Br3392     Br  0.65963908  0.67564500  0.12798082    -0.01600
Br3393     Br  0.66209926  0.76779827  0.21114782    -0.01600
Br3394     Br  0.61209178  0.73203358  0.17135409    -0.01600
C3395       C  0.62872080  0.73057289  0.28455692    -0.02700
C3396       C  0.64558822  0.74604839  0.30656514     0.07000
C3397       C  0.63507525  0.75239519  0.33066237    -0.02800
C3398       C  0.60977546  0.74858668  0.32927868    -0.02800
C3399       C  0.59519156  0.73847155  0.30364051     0.07100
C3400       C  0.60380814  0.72712300  0.28279442    -0.03000
Br3401     Br  0.58237016  0.70842193  0.25044164    -0.01500
Br3402     Br  0.63962903  0.71381947  0.25682291    -0.01600
Br3403     Br  0.59705093  0.76043555  0.36100998    -0.01600
Br3404     Br  0.65538465  0.76741201  0.36480523    -0.01600
C3405       C  0.53197664  0.71183937  0.13181983    -0.02700
C3406       C  0.53962382  0.69348290  0.13587758     0.07000
C3407       C  0.53492087  0.68106535  0.16293196    -0.02800
C3408       C  0.52550245  0.68926056  0.18646103    -0.02800
C3409       C  0.52228498  0.71070728  0.18343890     0.07100
C3410       C  0.52438042  0.72114320  0.15570960    -0.03000
Br3411     Br  0.99692954  0.72737572  0.15050535    -0.01500
Br3412     Br  0.53446572  0.72618217  0.09387434    -0.01600
Br3413     Br  0.51834549  0.67222724  0.22326311    -0.01600
Br3414     Br  0.54480182  0.65559528  0.16908295    -0.01600
C3415       C  0.49997283  0.86611146  0.96997448    -0.02700
C3416       C  0.97946856  0.85414039  0.98469603     0.07000
C3417       C  0.98156370  0.85343378  0.01533630    -0.02800
C3418       C  0.50287001  0.86724530  0.03103252    -0.02800
C3419       C  0.52567028  0.87712508  0.01425736     0.07100
C3420       C  0.52416506  0.87762217  0.98372014    -0.03000
Br3421     Br  0.55548537  0.89418136  0.96044823    -0.01500
Br3422     Br  0.49900508  0.86713219  0.92820508    -0.01600
Br3423     Br  0.50473909  0.86911324  0.07274703    -0.01600
Br3424     Br  0.95133875  0.83490186  0.03999618    -0.01600
C3425       C  0.66059587  0.50327910  0.97489325    -0.02700
C3426       C  0.65597205  0.52233951  0.98611832     0.07000
C3427       C  0.63916117  0.51663108  0.01017015    -0.02800
C3428       C  0.62442177  0.99135602  0.02182209    -0.02800
C3429       C  0.62872461  0.97164920  0.01135490     0.07100
C3430       C  0.64483896  0.97676236  0.98636618    -0.03000
Br3431     Br  0.65280539  0.95160485  0.97117912    -0.01500
Br3432     Br  0.68461725  0.51157192  0.94290576    -0.01600
Br3433     Br  0.60003048  0.98462033  0.05306012    -0.01600
Br3434     Br  0.63445005  0.54333962  0.02714917    -0.01600
C3435       C  0.56902960  0.78960955  0.02073516    -0.02700
C3436       C  0.59298770  0.81216981  0.02523439     0.07000
C3437       C  0.61597275  0.81120879  0.02349285    -0.02800
C3438       C  0.61515807  0.78847063  0.01585890    -0.02800
C3439       C  0.59153805  0.76538888  0.01649708     0.07100
C3440       C  0.56829863  0.76592941  0.01739553    -0.03000
Br3441     Br  0.53597914  0.73414873  0.01447578    -0.01500
Br3442     Br  0.53749519  0.79073070  0.02259809    -0.01600
Br3443     Br  0.64693871  0.78885652  0.00813468    -0.01600
Br3444     Br  0.64822390  0.83869831  0.03771289    -0.01600
C3445       C  0.57097879  0.85806063  0.17235028    -0.02700
C3446       C  0.55866777  0.85146831  0.14525615     0.07000
C3447       C  0.53391529  0.82916768  0.14365017    -0.02800
C3448       C  0.52344192  0.81225341  0.16779610    -0.02800
C3449       C  0.53857565  0.81645583  0.19277951     0.07100
C3450       C  0.56154398  0.84051737  0.19558605    -0.03000
Br3451     Br  0.07971065  0.84302371  0.22480152    -0.01500
Br3452     Br  0.60045421  0.89174303  0.17800246    -0.01600
Br3453     Br  0.48852405  0.78374847  0.16658763    -0.01600
Br3454     Br  0.51496337  0.82101220  0.10810078    -0.01600
C3455       C  0.68423374  0.89003084  0.99188111    -0.02700
C3456       C  0.68131741  0.90697545  0.01061446     0.07000
C3457       C  0.70330223  0.92753927  0.02323103    -0.02800
C3458       C  0.72715723  0.92849780  0.02075470    -0.02800
C3459       C  0.72818919  0.90744060  0.00915117     0.07100
C3460       C  0.70756529  0.88965782  0.99189759    -0.03000
Br3461     Br  0.71042362  0.86386715  0.97017706    -0.01500
Br3462     Br  0.65565145  0.86617529  0.96838135    -0.01600
Br3463     Br  0.75874971  0.95885397  0.03093631    -0.01600
Br3464     Br  0.70024673  0.95297331  0.04567637    -0.01600
C3465       C  0.77299386  0.86753183  0.31030728    -0.02700
C3466       C  0.75236877  0.84799520  0.32623839     0.07000
C3467       C  0.73797726  0.85434236  0.34530452    -0.02800
C3468       C  0.74029303  0.87873157  0.34365731    -0.02800
C3469       C  0.75711178  0.89648890  0.32256364     0.07100
C3470       C  0.77571639  0.89202883  0.30903490    -0.03000
Br3471     Br  0.80411217  0.91917815  0.28795590    -0.01500
Br3472     Br  0.79548406  0.85976056  0.28762174    -0.01600
Br3473     Br  0.71770346  0.88566380  0.36750726    -0.01600
Br3474     Br  0.71286634  0.82843651  0.37074164    -0.01600
C3475       C  0.81335400  0.95049883  0.16090321    -0.02700
C3476       C  0.79931640  0.94901088  0.13569780     0.07000
C3477       C  0.78277382  0.95934847  0.13697964    -0.02800
C3478       C  0.77819141  0.96832083  0.16335217    -0.02800
C3479       C  0.78823438  0.96499605  0.18927549     0.07100
C3480       C  0.80701182  0.95753456  0.18778526    -0.03000
Br3481     Br  0.82341468  0.95637449  0.22276379    -0.01500
Br3482     Br  0.83947501  0.94068312  0.15987152    -0.01600
Br3483     Br  0.75635254  0.98334619  0.16418603    -0.01600
Br3484     Br  0.76491597  0.96000238  0.10317704    -0.01600
C3485       C  0.65733284  0.85560455  0.30296617    -0.02700
C3486       C  0.65902799  0.87944513  0.30882647     0.07000
C3487       C  0.63632482  0.87982711  0.31696469    -0.02800
C3488       C  0.61191463  0.85720825  0.31463451    -0.02800
C3489       C  0.61041315  0.83452113  0.30409641     0.07100
C3490       C  0.63324103  0.83356337  0.29974682    -0.03000
Br3491     Br  0.63209614  0.80231996  0.28762957    -0.01500
Br3492     Br  0.68792844  0.85252981  0.29861105    -0.01600
Br3493     Br  0.58065469  0.85765262  0.32383629    -0.01600
Br3494     Br  0.63810756  0.91092533  0.33039306    -0.01600
C3495       C  0.67620912  0.95697844  0.18329946    -0.02700
C3496       C  0.68862662  0.94283788  0.18940301     0.07000
C3497       C  0.68458867  0.92251675  0.17055859    -0.02800
C3498       C  0.66664553  0.91489437  0.14808007    -0.02800
C3499       C  0.65540668  0.92994894  0.14064605     0.07100
C3500       C  0.66055993  0.95122293  0.15836031    -0.03000
Br3501     Br  0.64699556  0.97300997  0.14813716    -0.01500
Br3502     Br  0.67501425  0.47811712  0.20964910    -0.01600
Br3503     Br  0.65613673  0.88199034  0.12972494    -0.01600
Br3504     Br  0.70514750  0.90591822  0.17324644    -0.01600
C3505       C  0.80239238  0.83037452  0.63388277    -0.02700
C3506       C  0.81670164  0.85445825  0.64825661     0.07000
C3507       C  0.81882749  0.85411399  0.67902214    -0.02800
C3508       C  0.80761550  0.83057860  0.69456914    -0.02800
C3509       C  0.79374946  0.80683617  0.68001562     0.07100
C3510       C  0.79113350  0.80702234  0.64958317    -0.03000
Br3511     Br  0.77119379  0.77490677  0.62896200    -0.01500
Br3512     Br  0.79830917  0.82826159  0.59224746    -0.01600
Br3513     Br  0.81246170  0.83081421  0.73591594    -0.01600
Br3514     Br  0.83605877  0.88565052  0.70103549    -0.01600
C3515       C  0.81821405  0.96180641  0.67409303    -0.02700
C3516       C  0.81614827  0.95741337  0.64369642     0.07000
C3517       C  0.80301040  0.96707447  0.62742386    -0.02800
C3518       C  0.79475789  0.98298074  0.64063753    -0.02800
C3519       C  0.79605110  0.98671539  0.67113842     0.07100
C3520       C  0.80821990  0.97623455  0.68764844    -0.03000
Br3521     Br  0.81342845  0.48489586  0.73109250    -0.01500
Br3522     Br  0.83293933  0.94646308  0.69809234    -0.01600
Br3523     Br  0.78344261  0.00083958  0.61558655    -0.01600
Br3524     Br  0.79519952  0.95840860  0.58687160    -0.01600
C3525       C  0.81107748  0.77810822  0.34791731    -0.02700
C3526       C  0.80874665  0.78557121  0.31955416     0.07000
C3527       C  0.83116054  0.80523297  0.30570320    -0.02800
C3528       C  0.85509569  0.81786170  0.32037711    -0.02800
C3529       C  0.85694573  0.81167939  0.34960568     0.07100
C3530       C  0.83462233  0.79144848  0.36304979    -0.03000
Br3531     Br  0.83511381  0.78268104  0.40318718    -0.01500
Br3532     Br  0.78213999  0.74876590  0.36629447    -0.01600
Br3533     Br  0.88538056  0.84312370  0.29940294    -0.01600
Br3534     Br  0.82921724  0.81611272  0.26696839    -0.01600
C3535       C  0.95261835  0.78779937  0.35323249    -0.02700
C3536       C  0.95738590  0.81252456  0.34517584     0.07000
C3537       C  0.97464072  0.82520165  0.32148182    -0.02800
C3538       C  0.98766490  0.81387133  0.30752140    -0.02800
C3539       C  0.98336214  0.78981120  0.31653158     0.07100
C3540       C  0.96622994  0.77710640  0.33967044    -0.03000
Br3541     Br  0.45386831  0.74263755  0.35282048    -0.01500
Br3542     Br  0.41825001  0.76647944  0.37734042    -0.01600
Br3543     Br  0.01298084  0.83195104  0.27729043    -0.01600
Br3544     Br  0.98134487  0.85817663  0.30760984    -0.01600
C3545       C  0.85705425  0.85123925  0.47018712    -0.02700
C3546       C  0.87256900  0.84240473  0.48254027     0.07000
C3547       C  0.87302012  0.84077327  0.51296859    -0.02800
C3548       C  0.86152031  0.85155552  0.53069572    -0.02800
C3549       C  0.84989882  0.86441796  0.51806728     0.07100
C3550       C  0.84571324  0.86219069  0.48796960    -0.03000
Br3551     Br  0.82677985  0.87655175  0.47094098    -0.01500
Br3552     Br  0.85466366  0.85191497  0.42858487    -0.01600
Br3553     Br  0.86483340  0.85205321  0.57234325    -0.01600
Br3554     Br  0.89149294  0.82603406  0.53035245    -0.01600
C3555       C  0.71929080  0.67417502  0.32087634    -0.02700
C3556       C  0.70390983  0.68509312  0.31442323     0.07000
C3557       C  0.67723630  0.67122086  0.32115686    -0.02800
C3558       C  0.66622623  0.64742715  0.33540454    -0.02800
C3559       C  0.68175008  0.63684540  0.34291739     0.07100
C3560       C  0.70823079  0.65007545  0.33487617    -0.03000
Br3561     Br  0.72927712  0.63484201  0.34184444    -0.01500
Br3562     Br  0.75580749  0.69279026  0.31199267    -0.01600
Br3563     Br  0.62984366  0.63030810  0.34575184    -0.01600
Br3564     Br  0.65529950  0.68461264  0.31057986    -0.01600
C3565       C  0.66606807  0.51174955  0.32612019    -0.02700
C3566       C  0.68122294  0.53394250  0.34343766     0.07000
C3567       C  0.70841080  0.54428512  0.34414548    -0.02800
C3568       C  0.71995647  0.53260579  0.32815995    -0.02800
C3569       C  0.70469655  0.51016271  0.31208524     0.07100
C3570       C  0.67794858  0.50025364  0.31037874    -0.03000
Br3571     Br  0.65760843  0.96748171  0.29167750    -0.01500
Br3572     Br  0.62873482  0.49524346  0.32496809    -0.01600
Br3573     Br  0.75702098  0.54745423  0.32787247    -0.01600
Br3574     Br  0.73073380  0.57451098  0.36665654    -0.01600
C3575       C  0.54708238  0.96842172  0.36268693    -0.02700
C3576       C  0.56318282  0.97802629  0.38727285     0.07000
C3577       C  0.55688200  0.96215238  0.41189694    -0.02800
C3578       C  0.53262597  0.93975448  0.41436752    -0.02800
C3579       C  0.51501849  0.93160622  0.39111220     0.07100
C3580       C  0.52302161  0.94535210  0.36466930    -0.03000
Br3581     Br  0.00116508  0.93361961  0.32746532    -0.01500
Br3582     Br  0.55435677  0.48961600  0.32741285    -0.01600
Br3583     Br  0.52363309  0.92157795  0.45083894    -0.01600
Br3584     Br  0.58170826  0.97071626  0.44246278    -0.01600
C3585       C  0.54888598  0.83647454  0.64046199    -0.02700
C3586       C  0.54269966  0.85584660  0.64740308     0.07000
C3587       C  0.52521747  0.85119629  0.67103352    -0.02800
C3588       C  0.51420582  0.82784480  0.68656895    -0.02800
C3589       C  0.51942311  0.80840266  0.67839468     0.07100
C3590       C  0.53630852  0.81258833  0.65490416    -0.03000
Br3591     Br  0.02363698  0.77766706  0.62915376    -0.01500
Br3592     Br  0.04990604  0.83083340  0.59165636    -0.01600
Br3593     Br  0.49108521  0.82186719  0.71886830    -0.01600
Br3594     Br  0.51492709  0.87573156  0.68256716    -0.01600
C3595       C  0.64253720  0.95291612  0.67578945    -0.02700
C3596       C  0.64235439  0.95284354  0.64510847     0.07000
C3597       C  0.66555460  0.96049881  0.62971185    -0.02800
C3598       C  0.68867848  0.96914573  0.64475263    -0.02800
C3599       C  0.68973374  0.97316367  0.67511642     0.07100
C3600       C  0.66615946  0.96331400  0.69079713    -0.03000
Br3601     Br  0.66553210  0.96315263  0.73258000    -0.01500
Br3602     Br  0.61035114  0.93779108  0.69743311    -0.01600
Br3603     Br  0.71903615  0.47278603  0.62615070    -0.01600
Br3604     Br  0.66653687  0.96111157  0.58775166    -0.01600
C3605       C  0.96695517  0.90491774  0.58147412    -0.02700
C3606       C  0.98451572  0.91587282  0.60447444     0.07000
C3607       C  0.97671866  0.92434986  0.62943238    -0.02800
C3608       C  0.95355370  0.92527905  0.62923083    -0.02800
C3609       C  0.93831984  0.91835210  0.60391548     0.07100
C3610       C  0.94499868  0.90749445  0.58025244    -0.03000
Br3611     Br  0.92597416  0.89770770  0.54434178    -0.01500
Br3612     Br  0.97243668  0.88578278  0.55115007    -0.01600
Br3613     Br  0.94476768  0.93887944  0.66287626    -0.01600
Br3614     Br  0.49676060  0.93707459  0.66716613    -0.01600
C3615       C  0.64059059  0.00197249  0.52783586    -0.02700
C3616       C  0.62966746  0.97707970  0.51606139     0.07000
C3617       C  0.63443896  0.97461679  0.48654644    -0.02800
C3618       C  0.64253542  0.49388257  0.46518851    -0.02800
C3619       C  0.64991852  0.51830775  0.47678732     0.07100
C3620       C  0.65217876  0.52151790  0.50706390    -0.03000
Br3621     Br  0.66655031  0.55515487  0.52341768    -0.01500
Br3622     Br  0.64073896  0.00608671  0.56940078    -0.01600
Br3623     Br  0.64607114  0.49044534  0.42403107    -0.01600
Br3624     Br  0.62668122  0.94166588  0.47186639    -0.01600
C3625       C  0.00064926  0.85011477  0.52357615    -0.02700
C3626       C  0.52304102  0.86616252  0.51354688     0.07000
C3627       C  0.52645197  0.86777149  0.48328462    -0.02800
C3628       C  0.50469398  0.85596307  0.46523831    -0.02800
C3629       C  0.98206762  0.84434179  0.47536250     0.07100
C3630       C  0.97888081  0.83901402  0.50527382    -0.03000
Br3631     Br  0.94486853  0.81765707  0.52102526    -0.01500
Br3632     Br  0.99674047  0.84428102  0.56481791    -0.01600
Br3633     Br  0.50861287  0.85859779  0.42361886    -0.01600
Br3634     Br  0.56050401  0.88822273  0.46691817    -0.01600
C3635       C  0.67530256  0.68152899  0.67779645    -0.02700
C3636       C  0.68944572  0.70845921  0.68045347     0.07000
C3637       C  0.68250989  0.72331140  0.66361547    -0.02800
C3638       C  0.66129304  0.71133185  0.64458545    -0.02800
C3639       C  0.64602086  0.68408314  0.64315443     0.07100
C3640       C  0.65376621  0.66935388  0.65946276    -0.03000
Br3641     Br  0.63692608  0.63247115  0.65462414    -0.01500
Br3642     Br  0.68644384  0.66120831  0.69824043    -0.01600
Br3643     Br  0.65460196  0.73293870  0.61991611    -0.01600
Br3644     Br  0.70291316  0.76025315  0.66611299    -0.01600
C3645       C  0.54893504  0.72083601  0.67081660    -0.02700
C3646       C  0.52238505  0.70718780  0.67789470     0.07000
C3647       C  0.50759121  0.68101688  0.67010596    -0.02800
C3648       C  0.51891104  0.66885426  0.65454005    -0.02800
C3649       C  0.54511010  0.68302508  0.64539694     0.07100
C3650       C  0.56011806  0.70902860  0.65416116    -0.03000
Br3651     Br  0.59647449  0.72838657  0.64510240    -0.01500
Br3652     Br  0.57008569  0.75572629  0.68411549    -0.01600
Br3653     Br  0.49791307  0.63260930  0.64590384    -0.01600
Br3654     Br  0.96986679  0.66115641  0.67716143    -0.01600
C3655       C  0.97304847  0.54886025  0.62545801    -0.02700
C3656       C  0.98384743  0.56242030  0.59921932     0.07000
C3657       C  0.96805584  0.55432984  0.57426515    -0.02800
C3658       C  0.94477057  0.53054218  0.57384389    -0.02800
C3659       C  0.93532779  0.51512404  0.59939636     0.07100
C3660       C  0.94847549  0.52611171  0.62572224    -0.03000
Br3661     Br  0.93678451  0.01014660  0.66070436    -0.01500
Br3662     Br  0.49599998  0.55994746  0.66149756    -0.01600
Br3663     Br  0.92736335  0.52018553  0.53673232    -0.01600
Br3664     Br  0.97765321  0.57579896  0.53988744    -0.01600
C3665       C  0.57061381  0.54456393  0.62575624    -0.02700
C3666       C  0.57976135  0.56041902  0.60081089     0.07000
C3667       C  0.58942996  0.55258874  0.57715313    -0.02800
C3668       C  0.58758966  0.52840114  0.57707653    -0.02800
C3669       C  0.57703289  0.51170757  0.60124145     0.07100
C3670       C  0.56920277  0.52037097  0.62594376    -0.03000
Br3671     Br  0.56438660  0.00590246  0.66110534    -0.01500
Br3672     Br  0.55765064  0.55447440  0.65906920    -0.01600
Br3673     Br  0.59827232  0.51818344  0.54217913    -0.01600
Br3674     Br  0.60501993  0.57471096  0.54385472    -0.01600
C3675       C  0.65839082  0.62930725  0.50310381    -0.02700
C3676       C  0.65369773  0.62785217  0.47320691     0.07000
C3677       C  0.64510080  0.64376298  0.46170326    -0.02800
C3678       C  0.63470936  0.65512671  0.48034405    -0.02800
C3679       C  0.63359463  0.65096651  0.51044743     0.07100
C3680       C  0.64821599  0.64075433  0.52181267    -0.03000
Br3681     Br  0.65253394  0.64104067  0.56315493    -0.01500
Br3682     Br  0.67930758  0.61644584  0.51789729    -0.01600
Br3683     Br  0.62131872  0.67544098  0.46488506    -0.01600
Br3684     Br  0.64753895  0.64947245  0.42054594    -0.01600
C3685       C  0.93916361  0.64831692  0.34225694    -0.02700
C3686       C  0.95398896  0.63670296  0.34846532     0.07000
C3687       C  0.97922609  0.64747404  0.33691017    -0.02800
C3688       C  0.99007227  0.67042165  0.32086844    -0.02800
C3689       C  0.97576228  0.68277844  0.31566655     0.07100
C3690       C  0.94983935  0.67098459  0.32540323    -0.03000
Br3691     Br  0.92894212  0.68572794  0.31565378    -0.01500
Br3692     Br  0.90401863  0.63281448  0.35642229    -0.01600
Br3693     Br  0.52255763  0.68369287  0.30150419    -0.01600
Br3694     Br  0.50051576  0.63343799  0.34472342    -0.01600
C3695       C  0.83352029  0.53272216  0.36989139    -0.02700
C3696       C  0.85654393  0.53840355  0.35496175     0.07000
C3697       C  0.85598181  0.53431707  0.32471460    -0.02800
C3698       C  0.83239667  0.52312093  0.30982368    -0.02800
C3699       C  0.80917829  0.51680808  0.32485076     0.07100
C3700       C  0.81003781  0.52223295  0.35489464    -0.03000
Br3701     Br  0.77914050  0.51551258  0.37610318    -0.01500
Br3702     Br  0.83348660  0.53791924  0.41133553    -0.01600
Br3703     Br  0.83222725  0.51471789  0.26924680    -0.01600
Br3704     Br  0.88770803  0.54499426  0.30307761    -0.01600
C3705       C  0.90960493  0.96271255  0.38416410    -0.02700
C3706       C  0.92916397  0.98412164  0.39904593     0.07000
C3707       C  0.94797077  0.98161715  0.41440908    -0.02800
C3708       C  0.94696609  0.95792019  0.41552363    -0.02800
C3709       C  0.92740247  0.93638248  0.40083714     0.07100
C3710       C  0.90865172  0.93878965  0.38520710    -0.03000
Br3711     Br  0.88089141  0.90898209  0.36687197    -0.01500
Br3712     Br  0.88383269  0.96594488  0.36313463    -0.01600
Br3713     Br  0.97319894  0.95559135  0.43696004    -0.01600
Br3714     Br  0.97297642  0.51096902  0.43846744    -0.01600
C3715       C  0.00584595  0.64664470  0.46544825    -0.02700
C3716       C  0.98110149  0.63174724  0.47798504     0.07000
C3717       C  0.97847521  0.63254101  0.50821107    -0.02800
C3718       C  0.50089030  0.64208906  0.52654911    -0.02800
C3719       C  0.52555784  0.65230173  0.51354032     0.07100
C3720       C  0.52805669  0.65651490  0.48343117    -0.03000
Br3721     Br  0.56181395  0.67442644  0.46580928    -0.01500
Br3722     Br  0.00888430  0.65198928  0.42413720    -0.01600
Br3723     Br  0.49771538  0.64108607  0.56809190    -0.01600
Br3724     Br  0.94475378  0.61962264  0.52521728    -0.01600
C3725       C  0.87249155  0.52252611  0.51395183    -0.02700
C3726       C  0.87380391  0.52079786  0.48360891     0.07000
C3727       C  0.86171607  0.99442043  0.46546297    -0.02800
C3728       C  0.84960528  0.97187853  0.48246526    -0.02800
C3729       C  0.85007794  0.97351483  0.51297662     0.07100
C3730       C  0.85921825  0.99787732  0.52598637    -0.03000
Br3731     Br  0.86030302  0.00101792  0.56760830    -0.01500
Br3732     Br  0.88769512  0.55586228  0.53186448    -0.01600
Br3733     Br  0.83436072  0.93875163  0.46416128    -0.01600
Br3734     Br  0.86009533  0.49361665  0.42865909    -0.01600
C3735       C  0.55782267  0.58971695  0.40728731    -0.02700
C3736       C  0.56271221  0.57657014  0.38481057     0.07000
C3737       C  0.54573500  0.56732443  0.36085317    -0.02800
C3738       C  0.52283627  0.56869117  0.36121156    -0.02800
C3739       C  0.51651761  0.57879662  0.38567589     0.07100
C3740       C  0.53480944  0.59046092  0.40789730    -0.03000
Br3741     Br  0.52783526  0.60613038  0.44074877    -0.01500
Br3742     Br  0.58186419  0.60608070  0.43854231    -0.01600
Br3743     Br  0.49890514  0.55396102  0.32952333    -0.01600
Br3744     Br  0.55173219  0.55016132  0.32870752    -0.01600
loop_ 
_geom_bond_atom_site_label_1 
_geom_bond_atom_site_label_2 
_geom_bond_distance 
_geom_bond_site_symmetry_2 
_ccdc_geom_bond_type 
Fe1          O17   2.059       .  S
Fe1           O7   2.040       .  S
Fe1          O14   2.046       .  S
Fe1           O6   2.071       .  S
Fe1          O12   1.943       .  S
Fe2           O5   2.092       .  S
Fe2           O9   2.074       .  S
Fe2          O13   2.098       .  S
Fe2          O18   2.060       .  S
Fe2          O12   1.957       .  S
Fe3          O21   2.072       .  S
Fe3           O8   2.070       .  S
Fe3          O15   2.112       .  S
Fe3           O4   2.090       .  S
Fe3          O12   1.963       .  S
O4           C11   1.272       .  A
O5           C19   1.277       .  A
O6           C11   1.268       .  A
O7           C10   1.265       .  A
O8           C20   1.269       .  A
O9           C22   1.270       .  A
C10          O15   1.275       .  A
C10         C908   1.482       .  S
C11         C918   1.485       .  S
O13          C16   1.274       .  A
O14          C16   1.267       .  A
C16        C1834   1.478   1_545  S
O17          C22   1.268       .  A
O18          C20   1.269       .  A
C19          O21   1.274       .  A
C19         C878   1.488       .  S
C20         C888   1.481       .  S
C22        C2803   1.488       .  S
Fe23         O39   2.087       .  S
Fe23         O29   2.079       .  S
Fe23         O36   2.096       .  S
Fe23         O28   2.058       .  S
Fe23         O34   1.979       .  S
Fe24         O27   2.047       .  S
Fe24         O31   2.053       .  S
Fe24         O35   2.035       .  S
Fe24         O40   2.061       .  S
Fe24         O34   1.977       .  S
Fe25         O43   2.116       .  S
Fe25         O30   2.102       .  S
Fe25         O37   2.094       .  S
Fe25         O26   2.095       .  S
Fe25         O34   1.990       .  S
O26          C33   1.274       .  A
O27          C41   1.264       .  A
O28          C33   1.268       .  A
O29          C32   1.273       .  A
O30          C42   1.273       .  A
O31          C44   1.268       .  A
C32          O37   1.275       .  A
C32         C831   1.510       .  S
C33         C841   1.499       .  S
O35          C38   1.262       .  A
O36          C38   1.272       .  A
C38        C2720   1.507   1_455  S
O39          C44   1.272       .  A
O40          C42   1.268       .  A
C41          O43   1.276       .  A
C41         C871   1.488       .  S
C42         C911   1.488       .  S
C44         C858   1.499       .  S
Fe45         O61   2.027       .  S
Fe45         O51   2.057       .  S
Fe45         O58   2.035       .  S
Fe45         O50   2.040       .  S
Fe45         O56   1.973       .  S
Fe46         O49   2.075       .  S
Fe46         O53   2.097       .  S
Fe46         O57   2.081       .  S
Fe46         O62   2.081       .  S
Fe46         O56   1.978       .  S
Fe47         O65   2.061       .  S
Fe47         O52   2.081       .  S
Fe47         O59   2.119       .  S
Fe47         O48   2.102       .  S
Fe47         O56   1.985       .  S
O48          C55   1.272       .  A
O49          C63   1.268       .  A
O50          C55   1.263       .  A
O51          C54   1.266       .  A
O52          C64   1.271       .  A
O53          C66   1.274       .  A
C54          O59   1.277       .  A
C54         C808   1.495       .  S
C55         C818   1.480       .  S
O57          C60   1.270       .  A
O58          C60   1.261       .  A
C60        C2670   1.494   1_455  S
O61          C66   1.261       .  A
O62          C64   1.275       .  A
C63          O65   1.269       .  A
C63         C788   1.496       .  S
C64         C778   1.515       .  S
C66        C1797   1.502       .  S
Fe67         O83   2.077       .  S
Fe67         O73   2.042       .  S
Fe67         O80   2.064       .  S
Fe67         O72   2.061       .  S
Fe67         O78   1.986       .  S
Fe68         O71   2.075       .  S
Fe68         O75   2.042       .  S
Fe68         O79   2.056       .  S
Fe68         O84   2.060       .  S
Fe68         O78   1.971       .  S
Fe69         O87   2.105       .  S
Fe69         O74   2.112       .  S
Fe69         O81   2.094       .  S
Fe69         O70   2.080       .  S
Fe69         O78   1.983       .  S
O70          C77   1.272       .  A
O71          C85   1.270       .  A
O72          C77   1.266       .  A
O73          C76   1.264       .  A
O74          C86   1.275       .  A
O75          C88   1.264       .  A
C76          O81   1.276       .  A
C76         C751   1.483       .  S
C77         C758   1.495       .  S
O79          C82   1.269       .  A
O80          C82   1.266       .  A
C82        C1704   1.488   1_545  S
O83          C88   1.269       .  A
O84          C86   1.266       .  A
C85          O87   1.274       .  A
C85         C868   1.496       .  S
C86         C811   1.494       .  S
C88         C928   1.495       .  S
Fe89        O105   2.075       .  S
Fe89         O95   2.086       .  S
Fe89        O102   2.086       .  S
Fe89         O94   2.071       .  S
Fe89        O100   1.965       .  S
Fe90         O93   2.047       .  S
Fe90         O97   2.059       .  S
Fe90        O101   2.057       .  S
Fe90        O106   2.071       .  S
Fe90        O100   1.949       .  S
Fe91        O109   2.116       .  S
Fe91         O96   2.099       .  S
Fe91        O103   2.069       .  S
Fe91         O92   2.101       .  S
Fe91        O100   1.955       .  S
O92          C99   1.276       .  A
O93         C107   1.264       .  A
O94          C99   1.272       .  A
O95          C98   1.271       .  A
O96         C108   1.276       .  A
O97         C110   1.269       .  A
C98         O103   1.272       .  A
C98         C728   1.498       .  S
C99         C721   1.506       .  S
O101        C104   1.268       .  A
O102        C104   1.271       .  A
C104        C901   1.477       .  S
O105        C110   1.271       .  A
O106        C108   1.270       .  A
C107        O109   1.274       .  A
C107        C821   1.489       .  S
C108        C738   1.487       .  S
C110       C2643   1.488       .  S
Fe111       O127   2.105       .  S
Fe111       O117   2.072       .  S
Fe111       O124   2.081       .  S
Fe111       O116   2.096       .  S
Fe111       O122   1.976       .  S
Fe112       O115   2.042       .  S
Fe112       O119   2.035       .  S
Fe112       O123   2.027       .  S
Fe112       O128   2.049       .  S
Fe112       O122   1.975       .  S
Fe113       O131   2.116       .  S
Fe113       O118   2.108       .  S
Fe113       O125   2.071       .  S
Fe113       O114   2.088       .  S
Fe113       O122   1.985       .  S
O114        C121   1.274       .  A
O115        C129   1.263       .  A
O116        C121   1.275       .  A
O117        C120   1.270       .  A
O118        C130   1.274       .  A
O119        C132   1.262       .  A
C120        O125   1.269       .  A
C120        C708   1.502       .  S
C121        C698   1.520       .  S
O123        C126   1.262       .  A
O124        C126   1.268       .  A
C126        C801   1.489       .  S
O127        C132   1.275       .  A
O128        C130   1.265       .  A
C129        O131   1.276       .  A
C129        C921   1.489       .  S
C130        C741   1.487       .  S
C132       C1787   1.509       .  S
Fe133       O149   2.049       .  S
Fe133       O139   2.054       .  S
Fe133       O146   2.079       .  S
Fe133       O138   2.054       .  S
Fe133       O144   1.984       .  S
Fe134       O137   2.068       .  S
Fe134       O141   2.072       .  S
Fe134       O145   2.058       .  S
Fe134       O150   2.062       .  S
Fe134       O144   1.960       .  S
Fe135       O147   2.082   1_565  S
Fe135       O136   2.073   1_565  S
Fe135      O1089   2.071       .  S
Fe135      O1076   2.099       .  S
Fe135      O1080   1.989       .  S
O136        C143   1.266   1_545  A
O137        C151   1.267       .  A
O138       C1079   1.263       .  A
O139       C1078   1.269       .  A
O140      Fe1071   2.094       .  S
O140        C152   1.277       .  A
O141        C154   1.269       .  A
C142        O147   1.276       .  A
C142       O1075   1.271   1_545  A
C142        C891   1.487       .  S
C143       O1074   1.262       .  A
C143        C761   1.476   1_565  S
O144      Fe1071   1.985       .  S
O145        C148   1.270       .  A
O146        C148   1.269       .  A
C148        C678   1.491       .  S
O149        C154   1.262       .  A
O150        C152   1.271       .  A
C151        O153   1.270       .  A
C151        C671   1.494       .  S
C152        C688   1.493       .  S
O153      Fe1071   2.088       .  S
C154        C661   1.476       .  S
Fe155       O171   2.091       .  S
Fe155       O161   2.013       .  S
Fe155       O168   2.029       .  S
Fe155       O160   2.056       .  S
Fe155       O166   1.927       .  S
Fe156       O159   2.081       .  S
Fe156       O163   2.045       .  S
Fe156       O167   2.091       .  S
Fe156       O172   2.032       .  S
Fe156       O166   1.965       .  S
Fe157       O175   2.086       .  S
Fe157       O162   2.137       .  S
Fe157       O169   2.135       .  S
Fe157       O158   2.116       .  S
Fe157       O166   1.944       .  S
O158        C165   1.280       .  A
O159        C173   1.267       .  A
O160        C165   1.268       .  A
O161        C164   1.259       .  A
O162        C174   1.287       .  A
O163        C176   1.265       .  A
C164        O169   1.281       .  A
C164        C691   1.514       .  S
C165        C638   1.493       .  S
O167        C170   1.268       .  A
O168        C170   1.253       .  A
C170        C628   1.462       .  S
O171        C176   1.278       .  A
O172        C174   1.268       .  A
C173        O175   1.273       .  A
C173        C621   1.503       .  S
C174        C611   1.491       .  S
C176        C648   1.467       .  S
Fe177       O193   2.085       .  S
Fe177       O183   2.061       .  S
Fe177       O190   2.058       .  S
Fe177       O182   2.068       .  S
Fe177       O188   1.980       .  S
Fe178       O181   2.067       .  S
Fe178       O185   2.048       .  S
Fe178       O189   2.056       .  S
Fe178       O194   2.050       .  S
Fe178       O188   1.961       .  S
Fe179       O184   2.087       .  S
Fe179       O191   2.077       .  S
Fe179       O180   2.115       .  S
Fe179      O2069   2.124       .  S
Fe179      O2060   1.990       .  S
O180        C187   1.281       .  A
O181        C195   1.272       .  A
O182       C2059   1.273   1_455  A
O183       C2058   1.264   1_455  A
O184       C2068   1.268       .  A
O185        C198   1.268       .  A
C186        O191   1.268       .  A
C186       O2055   1.265       .  A
C186        C731   1.481       .  S
C187       O2054   1.271       .  A
C187        C881   1.492       .  S
O188      Fe2051   1.991   1_455  S
O189        C192   1.267       .  A
O190        C192   1.264       .  A
C192        C591   1.487       .  S
O193        C198   1.273       .  A
O194        C196   1.263       .  A
C195        O197   1.280       .  A
C195        C641   1.503       .  S
C196       O2056   1.270       .  A
C196        C601   1.484       .  S
O197      Fe2051   2.114   1_455  S
C198        C681   1.484       .  S
Fe199       O215   2.087       .  S
Fe199       O205   2.032       .  S
Fe199       O212   2.062       .  S
Fe199       O204   2.065       .  S
Fe199       O210   1.970       .  S
Fe200       O203   2.039       .  S
Fe200       O207   2.068       .  S
Fe200       O211   2.051       .  S
Fe200       O216   2.040       .  S
Fe200       O210   1.946       .  S
Fe201       O219   2.105       .  S
Fe201       O206   2.092       .  S
Fe201       O213   2.066       .  S
Fe201       O202   2.095       .  S
Fe201       O210   1.976       .  S
O202        C209   1.280       .  A
O203        C217   1.268       .  A
O204        C209   1.277       .  A
O205        C208   1.259       .  A
O206        C218   1.271       .  A
O207        C220   1.272       .  A
C208        O213   1.265       .  A
C208        C558   1.463       .  S
C209        C548   1.493       .  S
O211        C214   1.262       .  A
O212        C214   1.261       .  A
C214        C631   1.464       .  S
O215        C220   1.275       .  A
O216        C218   1.263       .  A
C217        O219   1.276       .  A
C217        C578   1.487       .  S
C218        C598   1.485       .  S
C220        C568   1.493       .  S
Fe221       O237   2.059       .  S
Fe221       O227   2.064       .  S
Fe221       O234   2.066       .  S
Fe221       O226   2.028       .  S
Fe221       O232   1.983       .  S
Fe222       O225   2.082       .  S
Fe222       O229   2.068       .  S
Fe222       O233   2.078       .  S
Fe222       O238   2.066       .  S
Fe222       O232   1.963       .  S
Fe223       O241   2.075       .  S
Fe223       O228   2.123       .  S
Fe223       O235   2.122       .  S
Fe223       O224   2.076       .  S
Fe223       O232   1.980       .  S
O224        C231   1.266       .  A
O225        C239   1.272       .  A
O226        C231   1.256       .  A
O227        C230   1.272       .  A
O228        C240   1.283       .  A
O229        C242   1.268       .  A
C230        O235   1.285       .  A
C230        C521   1.517       .  S
C231        C528   1.473       .  S
O233        C236   1.274       .  A
O234        C236   1.268       .  A
C236        C571   1.496       .  S
O237        C242   1.263       .  A
O238        C240   1.272       .  A
C239        O241   1.266       .  A
C239        C668   1.493       .  S
C240        C541   1.501       .  S
C242        C651   1.483       .  S
Fe243       O259   2.052       .  S
Fe243       O249   2.031       .  S
Fe243       O256   2.057       .  S
Fe243       O248   2.027       .  S
Fe243       O254   1.958       .  S
Fe244       O247   2.054       .  S
Fe244       O251   2.067       .  S
Fe244       O255   2.084       .  S
Fe244       O260   2.039       .  S
Fe244       O254   1.995       .  S
Fe245       O263   2.111       .  S
Fe245       O250   2.096       .  S
Fe245       O257   2.132       .  S
Fe245       O246   2.127       .  S
Fe245       O254   1.985       .  S
O246        C253   1.279       .  A
O247        C261   1.270       .  A
O248        C253   1.258       .  A
O249        C252   1.263       .  A
O250        C262   1.274       .  A
O251        C264   1.263       .  A
C252        O257   1.279       .  A
C252        C538   1.516       .  S
C253        C581   1.518       .  S
O255        C258   1.269       .  A
O256        C258   1.267       .  A
C258        C588   1.482       .  S
O259        C264   1.265       .  A
O260        C262   1.261       .  A
C261        O263   1.282       .  A
C261        C718   1.496       .  S
C262        C748   1.483       .  S
C264        C658   1.470       .  S
Fe265       O281   2.067       .  S
Fe265       O271   2.044       .  S
Fe265       O278   2.037       .  S
Fe265       O270   2.048       .  S
Fe265       O276   1.954       .  S
Fe266       O269   2.039       .  S
Fe266       O273   2.062       .  S
Fe266       O277   2.076       .  S
Fe266       O282   2.060       .  S
Fe266       O276   1.979       .  S
Fe267       O285   2.094       .  S
Fe267       O272   2.087       .  S
Fe267       O279   2.100       .  S
Fe267       O268   2.112       .  S
Fe267       O276   1.989       .  S
O268        C275   1.279       .  A
O269        C283   1.268       .  A
O270        C275   1.268       .  A
O271        C274   1.263       .  A
O272        C284   1.270       .  A
O273        C286   1.263       .  A
C274        O279   1.272       .  A
C274        C511   1.484       .  S
C275        C488   1.501       .  S
O277        C280   1.272       .  A
O278        C280   1.266       .  A
C280        C478   1.482       .  S
O281        C286   1.266       .  A
O282        C284   1.264       .  A
C283        O285   1.280       .  A
C283        C551   1.486       .  S
C284        C518   1.486       .  S
C286        C501   1.482       .  S
Fe287       O303   2.091       .  S
Fe287       O293   2.053       .  S
Fe287       O300   2.054       .  S
Fe287       O292   2.072       .  S
Fe287       O298   1.976       .  S
Fe288       O291   2.078       .  S
Fe288       O295   2.056       .  S
Fe288       O299   2.073       .  S
Fe288       O304   2.056       .  S
Fe288       O298   1.962       .  S
Fe289       O307   2.108   1_455  S
Fe289       O294   2.113   1_455  S
Fe289       O301   2.092       .  S
Fe289       O290   2.088       .  S
Fe289      O2170   1.986   1_455  S
O290        C297   1.277       .  A
O291        C305   1.272       .  A
O292       C2169   1.271       .  A
O293       C2168   1.266       .  A
O294       C2178   1.273       .  A
O295        C308   1.268       .  A
C296        O301   1.272       .  A
C296       O2165   1.266   1_455  A
C296        C781   1.485       .  S
C297       O2164   1.272   1_455  A
C297        C838   1.485       .  S
O298      Fe2161   1.986       .  S
O299        C302   1.270       .  A
O300        C302   1.265       .  A
C302        C451   1.477       .  S
O303        C308   1.274       .  A
O304        C306   1.266       .  A
C305       O2179   1.278       .  A
C305        C471   1.499       .  S
C306       O2166   1.272       .  A
C306        C508   1.491       .  S
O307       C2177   1.278       .  A
C308        C458   1.486       .  S
Fe309       O325   2.068       .  S
Fe309       O315   2.047       .  S
Fe309       O322   2.064       .  S
Fe309       O314   2.040       .  S
Fe309       O320   1.990       .  S
Fe310       O313   2.074       .  S
Fe310       O317   2.055       .  S
Fe310       O321   2.074       .  S
Fe310       O326   2.055       .  S
Fe310       O320   1.957       .  S
Fe311       O329   2.109       .  S
Fe311       O316   2.106       .  S
Fe311       O323   2.095       .  S
Fe311       O312   2.078       .  S
Fe311       O320   1.986       .  S
O312        C319   1.270       .  A
O313        C327   1.271       .  A
O314        C319   1.261       .  A
O315        C318   1.270       .  A
O316        C328   1.274       .  A
O317        C330   1.265       .  A
C318        O323   1.278       .  A
C318        C608   1.487       .  S
C319        C531   1.469       .  S
O321        C324   1.274       .  A
O322        C324   1.267       .  A
C324        C431   1.479       .  S
O325        C330   1.264       .  A
O326        C328   1.268       .  A
C327        O329   1.276       .  A
C327        C468   1.496       .  S
C328        C438   1.499       .  S
C330        C498   1.473       .  S
Fe331       O347   2.074       .  S
Fe331       O337   2.048       .  S
Fe331       O344   2.064       .  S
Fe331       O336   2.058       .  S
Fe331       O342   1.988       .  S
Fe332       O335   2.058       .  S
Fe332       O339   2.030       .  S
Fe332       O343   2.043       .  S
Fe332       O348   2.056       .  S
Fe332       O342   1.956       .  S
Fe333       O351   2.120       .  S
Fe333       O338   2.106       .  S
Fe333       O345   2.082       .  S
Fe333       O334   2.090       .  S
Fe333       O342   1.982       .  S
O334        C341   1.274       .  A
O335        C349   1.264       .  A
O336        C341   1.268       .  A
O337        C340   1.266       .  A
O338        C350   1.276       .  A
O339        C352   1.263       .  A
C340        O345   1.274       .  A
C340        C561   1.472       .  S
C341        C618   1.480       .  S
O343        C346   1.266       .  A
O344        C346   1.267       .  A
C346        C481   1.467       .  S
O347        C352   1.268       .  A
O348        C350   1.267       .  A
C349        O351   1.277       .  A
C349        C408   1.500       .  S
C350        C421   1.494       .  S
C352        C428   1.487       .  S
Fe353       O369   2.072       .  S
Fe353       O359   2.048       .  S
Fe353       O366   2.065       .  S
Fe353       O358   2.066       .  S
Fe353       O364   1.970       .  S
Fe354       O357   2.074       .  S
Fe354       O361   2.048       .  S
Fe354       O365   2.049       .  S
Fe354       O370   2.059       .  S
Fe354       O364   1.945       .  S
Fe355       O373   2.115       .  S
Fe355       O360   2.120       .  S
Fe355       O367   2.091       .  S
Fe355       O356   2.110       .  S
Fe355      O1300   1.971       .  S
O356        C363   1.283       .  A
O357        C371   1.269       .  A
O358       C1299   1.275   1_545  A
O359       C1298   1.261       .  A
O360       C1308   1.278       .  A
O361        C374   1.267       .  A
C362        O367   1.271       .  A
C362       O1295   1.263       .  A
C362        C711   1.497       .  S
C363       O1294   1.270       .  A
C363        C791   1.508       .  S
O364      Fe1291   1.964       .  S
O365        C368   1.266       .  A
O366        C368   1.264       .  A
C368        C398   1.470       .  S
O369        C374   1.269       .  A
O370        C372   1.266       .  A
C371       O1309   1.279       .  A
C371        C491   1.511       .  S
C372       O1296   1.279       .  A
C372        C418   1.495       .  S
O373       C1307   1.278       .  A
C374        C448   1.467       .  S
Fe375       O391   2.037       .  S
Fe375       O381   2.074       .  S
Fe375       O388   2.052       .  S
Fe375       O380   2.053       .  S
Fe375       O386   1.954       .  S
Fe376       O379   2.061       .  S
Fe376       O383   2.086       .  S
Fe376       O387   2.072       .  S
Fe376       O392   2.074       .  S
Fe376       O386   1.980       .  S
Fe377       O395   2.111       .  S
Fe377       O382   2.116       .  S
Fe377       O389   2.126       .  S
Fe377       O378   2.132       .  S
Fe377       O386   1.982       .  S
O378        C385   1.276       .  A
O379        C393   1.265       .  A
O380        C385   1.262       .  A
O381        C384   1.275       .  A
O382        C394   1.286       .  A
O383        C396   1.271       .  A
C384        O389   1.284       .  A
C384        C441   1.510       .  S
C385        C411   1.504       .  S
O387        C390   1.268       .  A
O388        C390   1.266       .  A
C390        C401   1.484       .  S
O391        C396   1.267       .  A
O392        C394   1.275       .  A
C393        O395   1.274       .  A
C393        C701   1.505       .  S
C394        C828   1.492       .  S
C396        C461   1.485       .  S
C397        C398   1.402       .  A
C397        C402   1.411       .  A
C397       Br404   1.925       .  S
C398        C399   1.396       .  A
C399        C400   1.399       .  A
C399       Br406   1.920       .  S
C400        C401   1.414       .  A
C400       Br405   1.917       .  S
C401        C402   1.421       .  A
C402       Br403   1.931       .  S
C407        C408   1.412       .  A
C407        C412   1.419       .  A
C407       Br414   1.924       .  S
C408        C409   1.406       .  A
C409        C410   1.412       .  A
C409       Br416   1.919       .  S
C410        C411   1.411       .  A
C410       Br415   1.913       .  S
C411        C412   1.414       .  A
C412       Br413   1.923       .  S
C417        C418   1.414       .  A
C417        C422   1.417       .  A
C417       Br424   1.917       .  S
C418        C419   1.410       .  A
C419        C420   1.409       .  A
C419       Br426   1.926       .  S
C420        C421   1.412       .  A
C420       Br425   1.928       .  S
C421        C422   1.409       .  A
C422       Br423   1.922       .  S
C427        C428   1.421       .  A
C427        C432   1.415       .  A
C427       Br434   1.931   1_556  S
C428        C429   1.417       .  A
C429        C430   1.394       .  A
C429       Br436   1.928       .  S
C430        C431   1.400       .  A
C430       Br435   1.924       .  S
C431        C432   1.409       .  A
C432       Br433   1.924   1_556  S
C437        C438   1.410       .  A
C437        C442   1.398       .  A
C437       Br444   1.940       .  S
C438        C439   1.421       .  A
C439        C440   1.429       .  A
C439       Br446   1.926       .  S
C440        C441   1.416       .  A
C440       Br445   1.923       .  S
C441        C442   1.410       .  A
C442       Br443   1.911       .  S
C447        C448   1.406       .  A
C447        C452   1.405       .  A
C447       Br454   1.933       .  S
C448        C449   1.402       .  A
C449        C450   1.402       .  A
C449       Br456   1.919       .  S
C450        C451   1.415       .  A
C450       Br455   1.932       .  S
C451        C452   1.410       .  A
C452       Br453   1.913       .  S
C457        C458   1.413       .  A
C457        C462   1.418       .  A
C457       Br464   1.926       .  S
C458        C459   1.415       .  A
C459        C460   1.400       .  A
C459       Br466   1.933       .  S
C460        C461   1.411       .  A
C460       Br465   1.942       .  S
C461        C462   1.414       .  A
C462       Br463   1.928       .  S
C467        C468   1.409       .  A
C467        C472   1.415       .  A
C467       Br474   1.926       .  S
C468        C469   1.409       .  A
C469        C470   1.417       .  A
C469       Br476   1.917       .  S
C470        C471   1.410       .  A
C470       Br475   1.915       .  S
C471        C472   1.413       .  A
C472       Br473   1.925       .  S
C477        C478   1.417       .  A
C477        C482   1.412       .  A
C477       Br484   1.923       .  S
C478        C479   1.419       .  A
C479        C480   1.394       .  A
C479       Br486   1.945       .  S
C480        C481   1.407       .  A
C480       Br485   1.933       .  S
C481        C482   1.406       .  A
C482       Br483   1.929       .  S
C487        C488   1.415       .  A
C487        C492   1.425       .  A
C487       Br494   1.927       .  S
C488        C489   1.412       .  A
C489        C490   1.406       .  A
C489       Br496   1.944       .  S
C490        C491   1.424       .  A
C490       Br495   1.932       .  S
C491        C492   1.421       .  A
C492       Br493   1.928   1_545  S
C497        C498   1.405       .  A
C497        C502   1.405       .  A
C497       Br504   1.919   1_556  S
C498        C499   1.401       .  A
C499        C500   1.406       .  A
C499       Br506   1.919       .  S
C500        C501   1.410       .  A
C500       Br505   1.916       .  S
C501        C502   1.415       .  A
C502       Br503   1.934   1_556  S
C507        C508   1.407       .  A
C507        C512   1.411       .  A
C507       Br514   1.916       .  S
C508        C509   1.406       .  A
C509        C510   1.411       .  A
C509       Br516   1.914       .  S
C510        C511   1.409       .  A
C510       Br515   1.918       .  S
C511        C512   1.409       .  A
C512       Br513   1.926       .  S
C517        C518   1.411       .  A
C517       C1458   1.417   1_546  A
C517       Br524   1.930       .  S
C518        C519   1.401       .  A
C519       C1456   1.410   1_545  A
C519       Br526   1.928       .  S
C520        C521   1.431   1_556  A
C520       C1455   1.416       .  A
C520       Br525   1.938       .  S
C521        C522   1.422       .  A
C522       C1453   1.418   1_554  A
C522       Br523   1.931       .  S
C527        C528   1.412       .  A
C527        C532   1.404   1_554  A
C527       Br534   1.935       .  S
C528        C529   1.410       .  A
C529        C530   1.408   1_554  A
C529       Br536   1.928       .  S
C530        C531   1.408       .  A
C530       Br535   1.929       .  S
C531        C532   1.409       .  A
C532       Br533   1.931       .  S
C537        C538   1.423       .  A
C537        C542   1.429       .  A
C537       Br544   1.927       .  S
C538        C539   1.419       .  A
C539        C540   1.404       .  A
C539       Br546   1.933       .  S
C540        C541   1.410       .  A
C540       Br545   1.928       .  S
C541        C542   1.415       .  A
C542       Br543   1.926       .  S
C547        C548   1.413       .  A
C547       C2424   1.410   1_455  A
C547       Br554   1.938       .  S
C548        C549   1.414   1_554  A
C549       C2422   1.413   1_455  A
C549       Br556   1.936       .  S
C550        C551   1.414       .  A
C550       C2421   1.409       .  A
C550       Br555   1.935       .  S
C551        C552   1.419   1_556  A
C552       C2419   1.404       .  A
C552       Br553   1.938       .  S
C557        C558   1.405       .  A
C557        C562   1.400       .  A
C557       Br564   1.935       .  S
C558        C559   1.408       .  A
C559        C560   1.409       .  A
C559       Br566   1.929       .  S
C560        C561   1.409   1_554  A
C560       Br565   1.927   1_554  S
C561        C562   1.412   1_556  A
C562       Br563   1.928   1_554  S
C567        C568   1.413       .  A
C567        C572   1.403       .  A
C567       Br574   1.927       .  S
C568        C569   1.413       .  A
C569        C570   1.417       .  A
C569       Br576   1.932   1_554  S
C570        C571   1.422       .  A
C570       Br575   1.930   1_554  S
C571        C572   1.413       .  A
C572       Br573   1.937       .  S
C577        C578   1.409       .  A
C577        C582   1.423       .  A
C577       Br584   1.929       .  S
C578        C579   1.402       .  A
C579        C580   1.404       .  A
C579       Br586   1.944       .  S
C580        C581   1.437       .  A
C580       Br585   1.949       .  S
C581        C582   1.427       .  A
C582       Br583   1.930       .  S
C587        C588   1.408       .  A
C587        C592   1.405       .  A
C587       Br594   1.927       .  S
C588        C589   1.403       .  A
C589        C590   1.409       .  A
C589       Br596   1.918       .  S
C590        C591   1.422       .  A
C590       Br595   1.935       .  S
C591        C592   1.411       .  A
C592       Br593   1.927       .  S
C597        C598   1.412       .  A
C597        C602   1.408       .  A
C597       Br604   1.926       .  S
C598        C599   1.412       .  A
C599        C600   1.411       .  A
C599       Br606   1.928       .  S
C600        C601   1.409       .  A
C600       Br605   1.921       .  S
C601        C602   1.406       .  A
C602      Br2475   1.922       .  S
Br603      C2474   1.920       .  S
C607        C612   1.411       .  A
C607       C2480   1.410   1_455  A
C607       Br614   1.931       .  S
C608        C609   1.418   1_556  A
C608       C2479   1.410       .  A
C609       C2482   1.411       .  A
C609       Br616   1.934       .  S
C610        C611   1.408       .  A
C610       C2481   1.412   1_455  A
C610       Br615   1.928       .  S
C611        C612   1.420   1_554  A
C612       Br613   1.936       .  S
C617        C618   1.405   1_565  A
C617       C1558   1.410       .  A
C617       Br624   1.932   1_565  S
C618        C619   1.409   1_556  A
C619       C1556   1.411   1_545  A
C619       Br626   1.930       .  S
C620        C621   1.418       .  A
C620       C1555   1.412       .  A
C620       Br625   1.933       .  S
C621        C622   1.426   1_554  A
C622       C1553   1.413       .  A
C622       Br623   1.933       .  S
C627        C628   1.410       .  A
C627        C632   1.411       .  A
C627       Br634   1.925       .  S
C628        C629   1.406       .  A
C629        C630   1.387       .  A
C629       Br636   1.926       .  S
C630        C631   1.400       .  A
C630       Br635   1.920       .  S
C631        C632   1.407       .  A
C632       Br633   1.923       .  S
C637        C638   1.410       .  A
C637        C642   1.406       .  A
C637       Br644   1.930       .  S
C638        C639   1.413       .  A
C639        C640   1.423       .  A
C639       Br646   1.923       .  S
C640        C641   1.416       .  A
C640       Br645   1.924   1_455  S
C641        C642   1.414       .  A
C642      Br2515   1.929       .  S
Br643      C2514   1.933       .  S
C647        C648   1.402   1_556  A
C647        C652   1.407   1_556  A
C647       Br654   1.930       .  S
C648        C649   1.399       .  A
C649        C650   1.405       .  A
C649       Br656   1.928       .  S
C650        C651   1.410       .  A
C650       Br655   1.914       .  S
C651        C652   1.418       .  A
C652       Br653   1.926   1_554  S
C657        C658   1.404       .  A
C657        C662   1.408       .  A
C657       Br664   1.926       .  S
C658        C659   1.400       .  A
C659        C660   1.401       .  A
C659       Br666   1.913       .  S
C660        C661   1.413       .  A
C660       Br665   1.932       .  S
C661        C662   1.409       .  A
C662       Br663   1.918       .  S
C667        C668   1.411       .  A
C667        C672   1.413       .  A
C667       Br674   1.932       .  S
C668        C669   1.403       .  A
C669        C670   1.411       .  A
C669       Br676   1.914       .  S
C670        C671   1.415       .  A
C670       Br675   1.929       .  S
C671        C672   1.413       .  A
C672       Br673   1.919       .  S
C677        C678   1.413       .  A
C677        C682   1.400       .  A
C677       Br684   1.941       .  S
C678        C679   1.418       .  A
C679        C680   1.417       .  A
C679       Br686   1.922       .  S
C680        C681   1.410       .  A
C680       Br685   1.929       .  S
C681        C682   1.413       .  A
C682       Br683   1.932       .  S
C687        C688   1.411       .  A
C687        C692   1.421       .  A
C687      Br1630   1.928       .  S
C688        C689   1.410       .  A
C689        C690   1.406       .  A
C689       Br696   1.943       .  S
C690        C691   1.430       .  A
C690       Br695   1.941       .  S
C691        C692   1.423       .  A
C692       Br693   1.931       .  S
Br694      C1623   1.929       .  S
C697        C698   1.423       .  A
C697        C702   1.416       .  A
C697       Br704   1.935       .  S
C698        C699   1.426       .  A
C699        C700   1.421       .  A
C699       Br706   1.932       .  S
C700        C701   1.412       .  A
C700       Br705   1.931       .  S
C701        C702   1.415       .  A
C702       Br703   1.937       .  S
C707        C708   1.422       .  A
C707        C712   1.415       .  A
C707       Br714   1.932       .  S
C708        C709   1.419       .  A
C709        C710   1.408       .  A
C709       Br716   1.942       .  S
C710        C711   1.415       .  A
C710       Br715   1.926       .  S
C711        C712   1.411       .  A
C712      Br1649   1.933       .  S
Br713      C1648   1.935       .  S
C717        C718   1.416       .  A
C717        C722   1.413       .  A
C717       Br724   1.936       .  S
C718        C719   1.411       .  A
C719        C720   1.416       .  A
C719       Br726   1.933       .  S
C720        C721   1.422       .  A
C720       Br725   1.933       .  S
C721        C722   1.419       .  A
C722       Br723   1.936       .  S
C727        C728   1.416       .  A
C727        C732   1.406       .  A
C727      Br2606   1.935       .  S
C728        C729   1.424       .  A
C729        C730   1.415       .  A
C729       Br736   1.933       .  S
C730        C731   1.407       .  A
C730       Br735   1.932       .  S
C731        C732   1.405       .  A
C732      Br2605   1.923       .  S
Br733      C2604   1.926       .  S
Br734      C2599   1.936       .  S
C737        C738   1.411       .  A
C737        C742   1.414       .  A
C737       Br744   1.927       .  S
C738        C739   1.409       .  A
C739        C740   1.411       .  A
C739       Br746   1.918       .  S
C740        C741   1.410       .  A
C740       Br745   1.931       .  S
C741        C742   1.408       .  A
C742       Br743   1.917       .  S
C747        C748   1.410       .  A
C747        C752   1.411       .  A
C747       Br754   1.929       .  S
C748        C749   1.414       .  A
C749        C750   1.406       .  A
C749       Br756   1.927       .  S
C750        C751   1.413       .  A
C750       Br755   1.938       .  S
C751        C752   1.411       .  A
C752       Br753   1.925       .  S
C757        C758   1.423       .  A
C757        C762   1.409   1_545  A
C757       Br764   1.934   1_545  S
C758        C759   1.419       .  A
C759        C760   1.409       .  A
C759       Br766   1.932       .  S
C760        C761   1.407       .  A
C760       Br765   1.931       .  S
C761        C762   1.403   1_545  A
C762      Br1699   1.927       .  S
Br763      C1698   1.926       .  S
C767        C768   1.420       .  A
C767        C772   1.413       .  A
C767      Br1710   1.934       .  S
C768       C1018   1.490       .  S
C768        C769   1.414       .  A
C769        C770   1.401       .  A
C769       Br776   1.935       .  S
C770        C771   1.414       .  A
C770       Br775   1.935       .  S
C771       C1982   1.485   1_455  S
C771        C772   1.414       .  A
C772      Br2645   1.934       .  S
Br773      C2644   1.934       .  S
Br774      C1703   1.933       .  S
C777        C778   1.429       .  A
C777        C782   1.414       .  A
C777      Br2656   1.937       .  S
C778        C779   1.429       .  A
C779        C780   1.413       .  A
C779       Br786   1.934       .  S
C780        C781   1.403       .  A
C780       Br785   1.934       .  S
C781        C782   1.408       .  A
C782      Br2655   1.936       .  S
Br783      C2654   1.937       .  S
Br784      C2649   1.936       .  S
C787        C788   1.420       .  A
C787        C792   1.419       .  A
C787       Br794   1.931       .  S
C788        C789   1.411       .  A
C789        C790   1.404       .  A
C789       Br796   1.942       .  S
C790        C791   1.422       .  A
C790      Br1731   1.925       .  S
C791        C792   1.416       .  A
C792       Br793   1.929       .  S
Br795      C1726   1.927       .  S
C797        C798   1.414       .  A
C797        C802   1.400       .  A
C797       Br804   1.936       .  S
C798       C1932   1.491       .  S
C798        C799   1.418       .  A
C799        C800   1.412       .  A
C799      Br2678   1.936       .  S
C800        C801   1.418       .  A
C800       Br805   1.936       .  S
C801        C802   1.418       .  A
C802       Br803   1.938       .  S
Br806      C2671   1.933       .  S
C807        C808   1.411       .  A
C807       C1748   1.415       .  A
C807       Br814   1.930       .  S
C808        C809   1.409       .  A
C809       C1746   1.416       .  A
C809       Br816   1.913       .  S
C810        C811   1.409   1_565  A
C810       C1745   1.416       .  A
C810       Br815   1.928       .  S
C811        C812   1.408       .  A
C812       C1743   1.414       .  A
C812       Br813   1.912       .  S
C817        C822   1.414       .  A
C817       C2690   1.410       .  A
C817       Br824   1.928       .  S
C818        C819   1.406       .  A
C818       C2689   1.410   1_455  A
C819        C820   1.410       .  A
C819       Br826   1.917       .  S
C820       C2693   1.410   1_455  A
C820       Br825   1.929       .  S
C821        C822   1.407       .  A
C821       C2692   1.409       .  A
C822       Br823   1.917       .  S
C827        C828   1.408       .  A
C827        C832   1.412       .  A
C827       Br834   1.919       .  S
C828        C829   1.407       .  A
C829        C830   1.419       .  A
C829       Br836   1.929       .  S
C830        C831   1.425       .  A
C830       Br835   1.927       .  S
C831        C832   1.419       .  A
C832       Br833   1.937       .  S
C837        C838   1.407       .  A
C837        C842   1.414       .  A
C837       Br844   1.931       .  S
C838        C839   1.410       .  A
C839        C840   1.410       .  A
C839      Br2718   1.929   1_455  S
C840        C841   1.419       .  A
C840       Br845   1.936   1_455  S
C841        C842   1.419       .  A
C842       Br843   1.924       .  S
Br846      C2711   1.930       .  S
C847        C848   1.420       .  A
C847        C852   1.417       .  A
C847      Br2726   1.934       .  S
C848       C1910   1.500       .  S
C848        C849   1.415       .  A
C849        C850   1.406       .  A
C849       Br856   1.940       .  S
C850        C851   1.423       .  A
C850       Br855   1.938       .  S
C851       C1068   1.501   1_545  S
C851        C852   1.418       .  A
C852      Br1789   1.935       .  S
Br853      C1788   1.935       .  S
Br854      C2719   1.934       .  S
C857        C858   1.420       .  A
C857        C862   1.418       .  A
C857       Br864   1.933       .  S
C858        C859   1.414       .  A
C859        C860   1.406       .  A
C859       Br866   1.936       .  S
C860        C861   1.416       .  A
C860       Br865   1.930       .  S
C861       C1002   1.499   1_545  S
C861        C862   1.417       .  A
C862      Br1799   1.933       .  S
Br863      C1798   1.937       .  S
C867        C868   1.407       .  A
C867        C872   1.413       .  A
C867       Br874   1.910       .  S
C868        C869   1.408       .  A
C869        C870   1.414       .  A
C869       Br876   1.920       .  S
C870        C871   1.408       .  A
C870       Br875   1.918       .  S
C871        C872   1.408       .  A
C872       Br873   1.927       .  S
C877        C878   1.415       .  A
C877        C882   1.417       .  A
C877       Br884   1.929       .  S
C878        C879   1.409       .  A
C879        C880   1.407       .  A
C879      Br2758   1.932       .  S
C880        C881   1.414       .  A
C880      Br2757   1.926       .  S
C881        C882   1.411       .  A
C882       Br883   1.923       .  S
Br885      C2752   1.923   1_455  S
Br886      C2751   1.933   1_455  S
C887        C888   1.412       .  A
C887        C892   1.407       .  A
C887       Br894   1.935       .  S
C888        C889   1.413       .  A
C889        C890   1.408       .  A
C889       Br896   1.937       .  S
C890        C891   1.417       .  A
C890       Br895   1.933       .  S
C891        C892   1.416       .  A
C892       Br893   1.935       .  S
C897        C898   1.413       .  A
C897        C902   1.417       .  A
C897       Br904   1.924       .  S
C898        C952   1.480       .  S
C898        C899   1.409       .  A
C899        C900   1.398       .  A
C899      Br1842   1.931       .  S
C900        C901   1.409       .  A
C900       Br905   1.930       .  S
C901        C902   1.411       .  A
C902       Br903   1.927       .  S
Br906      C1835   1.933   1_545  S
C907        C908   1.408       .  A
C907       C2784   1.410       .  A
C907       Br914   1.928       .  S
C908        C909   1.405       .  A
C909       C2782   1.411       .  A
C909       Br916   1.919       .  S
C910        C911   1.411       .  A
C910       C2781   1.411   1_455  A
C910       Br915   1.922   1_455  S
C911        C912   1.406       .  A
C912       C2779   1.414       .  A
C912       Br913   1.918       .  S
C917        C918   1.406       .  A
C917       C1858   1.412       .  A
C917       Br924   1.922       .  S
C918       C1855   1.412   1_545  A
C919        C920   1.411       .  A
C919       C1854   1.410       .  A
C919      Br1862   1.924       .  S
C920        C921   1.408       .  A
C920       Br925   1.919       .  S
C921        C922   1.415       .  A
C922       C1853   1.416       .  A
C922       Br923   1.927       .  S
Br926      C1855   1.927       .  S
C927        C928   1.420       .  A
C927        C932   1.401       .  A
C927       Br934   1.934       .  S
C928        C929   1.422       .  A
C929        C930   1.413       .  A
C929       Br936   1.933       .  S
C930        C931   1.410       .  A
C930       Br935   1.933       .  S
C931       C1894   1.482   1_455  S
C931        C932   1.407       .  A
C932       Br933   1.931       .  S
Fe937       O953   2.054       .  S
Fe937       O943   2.041       .  S
Fe937       O950   2.052       .  S
Fe937       O942   2.074       .  S
Fe937       O948   1.949       .  S
Fe938       O941   2.089       .  S
Fe938       O945   2.074       .  S
Fe938       O949   2.097       .  S
Fe938       O954   2.062       .  S
Fe938       O948   1.961       .  S
Fe939       O957   2.074       .  S
Fe939       O944   2.075       .  S
Fe939       O951   2.104       .  S
Fe939       O940   2.096       .  S
Fe939       O948   1.969       .  S
O940        C947   1.273       .  A
O941        C955   1.275       .  A
O942        C947   1.269       .  A
O943        C946   1.264       .  A
O944        C956   1.270       .  A
O945        C958   1.270       .  A
C946        O951   1.273       .  A
C946       C1844   1.480       .  S
C947       C1854   1.490       .  S
O949        C952   1.273       .  A
O950        C952   1.268       .  A
O953        C958   1.267       .  A
O954        C956   1.270       .  A
C955        O957   1.273       .  A
C955       C1814   1.489       .  S
C956       C1824   1.487       .  S
C958       C3739   1.485       .  S
Fe959       O975   2.082       .  S
Fe959       O965   2.078       .  S
Fe959       O972   2.099       .  S
Fe959       O964   2.057       .  S
Fe959       O970   1.983       .  S
Fe960       O963   2.054       .  S
Fe960       O967   2.050       .  S
Fe960       O971   2.042       .  S
Fe960       O976   2.067       .  S
Fe960       O970   1.972       .  S
Fe961       O979   2.104       .  S
Fe961       O966   2.091       .  S
Fe961       O973   2.076       .  S
Fe961       O962   2.089       .  S
Fe961       O970   1.988       .  S
O962        C969   1.274       .  A
O963        C977   1.265       .  A
O964        C969   1.267       .  A
O965        C968   1.273       .  A
O966        C978   1.271       .  A
O967        C980   1.267       .  A
C968        O973   1.271       .  A
C968       C1767   1.502       .  S
C969       C1777   1.493       .  S
O971        C974   1.263       .  A
O972        C974   1.273       .  A
C974       C3656   1.510   1_455  S
O975        C980   1.270       .  A
O976        C978   1.269       .  A
C977        O979   1.273       .  A
C977       C1807   1.486       .  S
C978       C1847   1.485       .  S
C980       C1794   1.499       .  S
Fe981       O997   2.048       .  S
Fe981       O987   2.065       .  S
Fe981       O994   2.050       .  S
Fe981       O986   2.059       .  S
Fe981       O992   1.972       .  S
Fe982       O985   2.074       .  S
Fe982       O989   2.093       .  S
Fe982       O993   2.080       .  S
Fe982       O998   2.079       .  S
Fe982       O992   1.978       .  S
Fe983      O1001   2.067       .  S
Fe983       O988   2.082       .  S
Fe983       O995   2.119       .  S
Fe983       O984   2.101       .  S
Fe983       O992   1.990       .  S
O984        C991   1.271       .  A
O985        C999   1.269       .  A
O986        C991   1.266       .  A
O987        C990   1.269       .  A
O988       C1000   1.274       .  A
O989       C1002   1.273       .  A
C990        O995   1.278       .  A
C990       C1744   1.496       .  S
C991       C1754   1.489       .  S
O993        C996   1.267       .  A
O994        C996   1.270       .  A
C996       C3606   1.499   1_455  S
O997       C1002   1.265       .  A
O998       C1000   1.270       .  A
C999       O1001   1.269       .  A
C999       C1724   1.503       .  S
C1000      C1714   1.515       .  S
Fe1003     O1019   2.091       .  S
Fe1003     O1009   2.053       .  S
Fe1003     O1016   2.069       .  S
Fe1003     O1008   2.064       .  S
Fe1003     O1014   1.988       .  S
Fe1004     O1007   2.066       .  S
Fe1004     O1011   2.041       .  S
Fe1004     O1015   2.053       .  S
Fe1004     O1020   2.066       .  S
Fe1004     O1014   1.969       .  S
Fe1005     O1023   2.100       .  S
Fe1005     O1010   2.108       .  S
Fe1005     O1017   2.089       .  S
Fe1005     O1006   2.076       .  S
Fe1005     O1014   1.986       .  S
O1006      C1013   1.270       .  A
O1007      C1021   1.269       .  A
O1008      C1013   1.268       .  A
O1009      C1012   1.268       .  A
O1010      C1022   1.274       .  A
O1011      C1024   1.265       .  A
C1012      O1017   1.275       .  A
C1012      C1687   1.487       .  S
C1013      C1694   1.494       .  S
O1015      C1018   1.268       .  A
O1016      C1018   1.268       .  A
O1019      C1024   1.270       .  A
O1020      C1022   1.268       .  A
C1021      O1023   1.272       .  A
C1021      C1804   1.489       .  S
C1022      C1747   1.495       .  S
C1024      C1864   1.499       .  S
Fe1025     O1041   2.074       .  S
Fe1025     O1031   2.089       .  S
Fe1025     O1038   2.089       .  S
Fe1025     O1030   2.070       .  S
Fe1025     O1036   1.956       .  S
Fe1026     O1029   2.037       .  S
Fe1026     O1033   2.066       .  S
Fe1026     O1037   2.054       .  S
Fe1026     O1042   2.072       .  S
Fe1026     O1036   1.944       .  S
Fe1027     O1045   2.111       .  S
Fe1027     O1032   2.093       .  S
Fe1027     O1039   2.061       .  S
Fe1027     O1028   2.098       .  S
Fe1027     O1036   1.949       .  S
O1028      C1035   1.275       .  A
O1029      C1043   1.264       .  A
O1030      C1035   1.273       .  A
O1031      C1034   1.271       .  A
O1032      C1044   1.275       .  A
O1033      C1046   1.269       .  A
C1034      O1039   1.270       .  A
C1034      C1664   1.494       .  S
C1035      C1657   1.505       .  S
O1037      C1040   1.267       .  A
O1038      C1040   1.272       .  A
C1040      C1837   1.476       .  S
O1041      C1046   1.271       .  A
O1042      C1044   1.270       .  A
C1043      O1045   1.274       .  A
C1043      C1757   1.482       .  S
C1044      C1674   1.485       .  S
C1046      C3579   1.490       .  S
Fe1047     O1063   2.100       .  S
Fe1047     O1053   2.073       .  S
Fe1047     O1060   2.085       .  S
Fe1047     O1052   2.094       .  S
Fe1047     O1058   1.975       .  S
Fe1048     O1051   2.041       .  S
Fe1048     O1055   2.034       .  S
Fe1048     O1059   2.035       .  S
Fe1048     O1064   2.044       .  S
Fe1048     O1058   1.978       .  S
Fe1049     O1067   2.110       .  S
Fe1049     O1054   2.112       .  S
Fe1049     O1061   2.082       .  S
Fe1049     O1050   2.090       .  S
Fe1049     O1058   1.989       .  S
O1050      C1057   1.274       .  A
O1051      C1065   1.263       .  A
O1052      C1057   1.276       .  A
O1053      C1056   1.270       .  A
O1054      C1066   1.275       .  A
O1055      C1068   1.261       .  A
C1056      O1061   1.271       .  A
C1056      C1644   1.503       .  S
C1057      C1634   1.517       .  S
O1059      C1062   1.260       .  A
O1060      C1062   1.273       .  A
C1062      C1737   1.498       .  S
O1063      C1068   1.274       .  A
O1064      C1066   1.263       .  A
C1065      O1067   1.276       .  A
C1065      C1857   1.485       .  S
C1066      C1677   1.487       .  S
Fe1069     O1085   2.047       .  S
Fe1069     O1075   2.054       .  S
Fe1069     O1082   2.082       .  S
Fe1069     O1074   2.051       .  S
Fe1069     O1080   1.979       .  S
Fe1070     O1073   2.068       .  S
Fe1070     O1077   2.077       .  S
Fe1070     O1081   2.063       .  S
Fe1070     O1086   2.063       .  S
Fe1070     O1080   1.958       .  S
Fe1071     O1083   2.084       .  S
Fe1071     O1072   2.079       .  S
O1072      C1079   1.269       .  A
O1073      C1087   1.268       .  A
O1076      C1088   1.277       .  A
O1077      C1090   1.269       .  A
C1078      O1083   1.277       .  A
C1078      C1827   1.490       .  S
C1079      C1697   1.480       .  S
O1081      C1084   1.272       .  A
O1082      C1084   1.273       .  A
C1084      C1614   1.493       .  S
O1085      C1090   1.261       .  A
O1086      C1088   1.272       .  A
C1087      O1089   1.266       .  A
C1087      C1607   1.488       .  S
C1088      C1624   1.499       .  S
C1090      C1597   1.478       .  S
Fe1091     O1107   2.098       .  S
Fe1091     O1097   2.038       .  S
Fe1091     O1104   2.040       .  S
Fe1091     O1096   2.070       .  S
Fe1091     O1102   1.936       .  S
Fe1092     O1095   2.066       .  S
Fe1092     O1099   2.044       .  S
Fe1092     O1103   2.086       .  S
Fe1092     O1108   2.028       .  S
Fe1092     O1102   1.967       .  S
Fe1093     O1111   2.086       .  S
Fe1093     O1098   2.126       .  S
Fe1093     O1105   2.119       .  S
Fe1093     O1094   2.114       .  S
Fe1093     O1102   1.944       .  S
O1094      C1101   1.279       .  A
O1095      C1109   1.263       .  A
O1096      C1101   1.271       .  A
O1097      C1100   1.261       .  A
O1098      C1110   1.287       .  A
O1099      C1112   1.265       .  A
C1100      O1105   1.279       .  A
C1100      C1627   1.522       .  S
C1101      C1574   1.496       .  S
O1103      C1106   1.267       .  A
O1104      C1106   1.259       .  A
C1106      C1564   1.471       .  S
O1107      C1112   1.280       .  A
O1108      C1110   1.269       .  A
C1109      O1111   1.270       .  A
C1109      C1557   1.497       .  S
C1110      C1547   1.481       .  S
C1112      C1584   1.468       .  S
Fe1113     O1129   2.089       .  S
Fe1113     O1119   2.058       .  S
Fe1113     O1126   2.058       .  S
Fe1113     O1118   2.073       .  S
Fe1113     O1124   1.983       .  S
Fe1114     O1117   2.067       .  S
Fe1114     O1121   2.048       .  S
Fe1114     O1125   2.056       .  S
Fe1114     O1130   2.051       .  S
Fe1114     O1124   1.960       .  S
Fe1115     O3005   2.126       .  S
Fe1115     O1120   2.092       .  S
Fe1115     O1127   2.081       .  S
Fe1115     O1116   2.116       .  S
Fe1115     O2996   1.991       .  S
O1116      C1123   1.280       .  A
O1117      C1131   1.272       .  A
O1118      C2995   1.273   1_455  A
O1119      C2994   1.264   1_455  A
O1120      C3004   1.270       .  A
O1121      C1134   1.268       .  A
C1122      O2991   1.267       .  A
C1122      O1127   1.270       .  A
C1122      C1667   1.479       .  S
C1123      O2990   1.269       .  A
C1123      C1817   1.492       .  S
O1124     Fe2987   1.990   1_455  S
O1125      C1128   1.268       .  A
O1126      C1128   1.263       .  A
C1128      C1527   1.487       .  S
O1129      C1134   1.273       .  A
O1130      C1132   1.264       .  A
C1131      O1133   1.279       .  A
C1131      C1577   1.503       .  S
C1132      O2992   1.270       .  A
C1132      C1537   1.482       .  S
O1133     Fe2987   2.114   1_455  S
C1134      C1617   1.483       .  S
Fe1135     O1151   2.093       .  S
Fe1135     O1141   2.027       .  S
Fe1135     O1148   2.053       .  S
Fe1135     O1140   2.063       .  S
Fe1135     O1146   1.971       .  S
Fe1136     O1139   2.052       .  S
Fe1136     O1143   2.070       .  S
Fe1136     O1147   2.070       .  S
Fe1136     O1152   2.054       .  S
Fe1136     O1146   1.953       .  S
Fe1137     O1155   2.099       .  S
Fe1137     O1142   2.082       .  S
Fe1137     O1149   2.057       .  S
Fe1137     O1138   2.094       .  S
Fe1137     O1146   1.988       .  S
O1138      C1145   1.281       .  A
O1139      C1153   1.271       .  A
O1140      C1145   1.274       .  A
O1141      C1144   1.258       .  A
O1142      C1154   1.268       .  A
O1143      C1156   1.272       .  A
C1144      O1149   1.262       .  A
C1144      C1494   1.459       .  S
C1145      C1484   1.498       .  S
O1147      C1150   1.267       .  A
O1148      C1150   1.260       .  A
C1150      C1567   1.478       .  S
O1151      C1156   1.275       .  A
O1152      C1154   1.267       .  A
C1153      O1155   1.275       .  A
C1153      C1514   1.490       .  S
C1154      C1534   1.485       .  S
C1156      C1504   1.496       .  S
Fe1157     O1173   2.060       .  S
Fe1157     O1163   2.057       .  S
Fe1157     O1170   2.064       .  S
Fe1157     O1162   2.042       .  S
Fe1157     O1168   1.976       .  S
Fe1158     O1161   2.077       .  S
Fe1158     O1165   2.059       .  S
Fe1158     O1169   2.087       .  S
Fe1158     O1174   2.060       .  S
Fe1158     O1168   1.965       .  S
Fe1159     O1177   2.059       .  S
Fe1159     O1164   2.123       .  S
Fe1159     O1171   2.122       .  S
Fe1159     O1160   2.071       .  S
Fe1159     O1168   1.979       .  S
O1160      C1167   1.265       .  A
O1161      C1175   1.271       .  A
O1162      C1167   1.260       .  A
O1163      C1166   1.272       .  A
O1164      C1176   1.283       .  A
O1165      C1178   1.267       .  A
C1166      O1171   1.284       .  A
C1166      C1457   1.509       .  S
C1167      C1464   1.474       .  S
O1169      C1172   1.275       .  A
O1170      C1172   1.268       .  A
C1172      C1507   1.496       .  S
O1173      C1178   1.262       .  A
O1174      C1176   1.270       .  A
C1175      O1177   1.262       .  A
C1175      C1604   1.479       .  S
C1176      C1477   1.496       .  S
C1178      C1587   1.493       .  S
Fe1179     O1195   2.040       .  S
Fe1179     O1185   2.039       .  S
Fe1179     O1192   2.061       .  S
Fe1179     O1184   2.027       .  S
Fe1179     O1190   1.957       .  S
Fe1180     O1183   2.050       .  S
Fe1180     O1187   2.071       .  S
Fe1180     O1191   2.079       .  S
Fe1180     O1196   2.041       .  S
Fe1180     O1190   1.992       .  S
Fe1181     O1199   2.112       .  S
Fe1181     O1186   2.096       .  S
Fe1181     O1193   2.124       .  S
Fe1181     O1182   2.128       .  S
Fe1181     O1190   1.980       .  S
O1182      C1189   1.279       .  A
O1183      C1197   1.270       .  A
O1184      C1189   1.255       .  A
O1185      C1188   1.267       .  A
O1186      C1198   1.273       .  A
O1187      C1200   1.263       .  A
C1188      O1193   1.279       .  A
C1188      C1474   1.511       .  S
C1189      C1517   1.513       .  S
O1191      C1194   1.271       .  A
O1192      C1194   1.270       .  A
C1194      C1524   1.480       .  S
O1195      C1200   1.261       .  A
O1196      C1198   1.262       .  A
C1197      O1199   1.283       .  A
C1197      C1654   1.492       .  S
C1198      C1684   1.484       .  S
C1200      C1594   1.468       .  S
Fe1201     O1217   2.063       .  S
Fe1201     O1207   2.049       .  S
Fe1201     O1214   2.044       .  S
Fe1201     O1206   2.043       .  S
Fe1201     O1212   1.952       .  S
Fe1202     O1205   2.039       .  S
Fe1202     O1209   2.076       .  S
Fe1202     O1213   2.071       .  S
Fe1202     O1218   2.072       .  S
Fe1202     O1212   1.979       .  S
Fe1203     O1221   2.102       .  S
Fe1203     O1208   2.096       .  S
Fe1203     O1215   2.115       .  S
Fe1203     O1204   2.116       .  S
Fe1203     O1212   1.987       .  S
O1204      C1211   1.279       .  A
O1205      C1219   1.267       .  A
O1206      C1211   1.268       .  A
O1207      C1210   1.264       .  A
O1208      C1220   1.272       .  A
O1209      C1222   1.266       .  A
C1210      O1215   1.275       .  A
C1210      C1447   1.492       .  S
C1211      C1424   1.496       .  S
O1213      C1216   1.271       .  A
O1214      C1216   1.267       .  A
C1216      C1414   1.480       .  S
O1217      C1222   1.266       .  A
O1218      C1220   1.267       .  A
C1219      O1221   1.281       .  A
C1219      C1487   1.494       .  S
C1220      C1454   1.495       .  S
C1222      C1437   1.490       .  S
Fe1223     O1239   2.094       .  S
Fe1223     O1229   2.057       .  S
Fe1223     O1236   2.053       .  S
Fe1223     O1228   2.079       .  S
Fe1223     O1234   1.980       .  S
Fe1224     O1227   2.080       .  S
Fe1224     O1231   2.044       .  S
Fe1224     O1235   2.069       .  S
Fe1224     O1240   2.056       .  S
Fe1224     O1234   1.959       .  S
Fe1225     O1243   2.104   1_455  S
Fe1225     O1230   2.115       .  S
Fe1225     O1237   2.094       .  S
Fe1225     O1226   2.084       .  S
Fe1225     O3106   1.985   1_455  S
O1226      C1233   1.276       .  A
O1227      C1241   1.272       .  A
O1228      C3105   1.274       .  A
O1229      C3104   1.265       .  A
O1230      C3114   1.275   1_455  A
O1231      C1244   1.266       .  A
C1232      O3101   1.266   1_455  A
C1232      O1237   1.273       .  A
C1232      C1717   1.487       .  S
C1233      O3100   1.273   1_455  A
C1233      C1774   1.485       .  S
O1234     Fe3097   1.981       .  S
O1235      C1238   1.269       .  A
O1236      C1238   1.264       .  A
C1238      C1387   1.477       .  S
O1239      C1244   1.274       .  A
O1240      C1242   1.265       .  A
C1241      O3115   1.277       .  A
C1241      C1407   1.500       .  S
C1242      O3102   1.276       .  A
C1242      C1444   1.498       .  S
O1243      C3113   1.276       .  A
C1244      C1394   1.480       .  S
Fe1245     O1261   2.070       .  S
Fe1245     O1251   2.051       .  S
Fe1245     O1258   2.063       .  S
Fe1245     O1250   2.043       .  S
Fe1245     O1256   1.985       .  S
Fe1246     O1249   2.073       .  S
Fe1246     O1253   2.057       .  S
Fe1246     O1257   2.076       .  S
Fe1246     O1262   2.048       .  S
Fe1246     O1256   1.958       .  S
Fe1247     O1265   2.111       .  S
Fe1247     O1252   2.112       .  S
Fe1247     O1259   2.104       .  S
Fe1247     O1248   2.082       .  S
Fe1247     O1256   1.986       .  S
O1248      C1255   1.270       .  A
O1249      C1263   1.271       .  A
O1250      C1255   1.261       .  A
O1251      C1254   1.272       .  A
O1252      C1264   1.276       .  A
O1253      C1266   1.266       .  A
C1254      O1259   1.279       .  A
C1254      C1544   1.494       .  S
C1255      C1467   1.474       .  S
O1257      C1260   1.274       .  A
O1258      C1260   1.267       .  A
C1260      C1367   1.482       .  S
O1261      C1266   1.264       .  A
O1262      C1264   1.266       .  A
C1263      O1265   1.276       .  A
C1263      C1404   1.496       .  S
C1264      C1374   1.496       .  S
C1266      C1434   1.479       .  S
Fe1267     O1283   2.088       .  S
Fe1267     O1273   2.038       .  S
Fe1267     O1280   2.061       .  S
Fe1267     O1272   2.064       .  S
Fe1267     O1278   1.991       .  S
Fe1268     O1271   2.058       .  S
Fe1268     O1275   2.024       .  S
Fe1268     O1279   2.048       .  S
Fe1268     O1284   2.046       .  S
Fe1268     O1278   1.960       .  S
Fe1269     O1287   2.115       .  S
Fe1269     O1274   2.111       .  S
Fe1269     O1281   2.090       .  S
Fe1269     O1270   2.085       .  S
Fe1269     O1278   1.989       .  S
O1270      C1277   1.271       .  A
O1271      C1285   1.263       .  A
O1272      C1277   1.268       .  A
O1273      C1276   1.266       .  A
O1274      C1286   1.278       .  A
O1275      C1288   1.263       .  A
C1276      O1281   1.277       .  A
C1276      C1497   1.471       .  S
C1277      C1554   1.484       .  S
O1279      C1282   1.267       .  A
O1280      C1282   1.265       .  A
C1282      C1417   1.470       .  S
O1283      C1288   1.271       .  A
O1284      C1286   1.268       .  A
C1285      O1287   1.274       .  A
C1285      C1344   1.498       .  S
C1286      C1357   1.493       .  S
C1288      C1364   1.492       .  S
Fe1289     O1305   2.070       .  S
Fe1289     O1295   2.055       .  S
Fe1289     O1302   2.068       .  S
Fe1289     O1294   2.052       .  S
Fe1289     O1300   1.976       .  S
Fe1290     O1293   2.056       .  S
Fe1290     O1297   2.052       .  S
Fe1290     O1301   2.035       .  S
Fe1290     O1306   2.059       .  S
Fe1290     O1300   1.951       .  S
Fe1291     O1309   2.113       .  S
Fe1291     O1296   2.127       .  S
Fe1291     O1303   2.098   1_545  S
Fe1291     O1292   2.099   1_545  S
O1292      C1299   1.282       .  A
O1293      C1307   1.265       .  A
O1297      C1310   1.269       .  A
C1298      O1303   1.273   1_545  A
C1298      C1647   1.498   1_545  S
C1299      C1727   1.503       .  S
O1301      C1304   1.263       .  A
O1302      C1304   1.263       .  A
C1304      C1334   1.470       .  S
O1305      C1310   1.269       .  A
O1306      C1308   1.267       .  A
C1307      C1427   1.509       .  S
C1308      C1354   1.491       .  S
C1310      C1384   1.467       .  S
Fe1311     O1327   2.040       .  S
Fe1311     O1317   2.072       .  S
Fe1311     O1324   2.048       .  S
Fe1311     O1316   2.056       .  S
Fe1311     O1322   1.954       .  S
Fe1312     O1315   2.060       .  S
Fe1312     O1319   2.079       .  S
Fe1312     O1323   2.069       .  S
Fe1312     O1328   2.068       .  S
Fe1312     O1322   1.980       .  S
Fe1313     O1331   2.107       .  S
Fe1313     O1318   2.100       .  S
Fe1313     O1325   2.118       .  S
Fe1313     O1314   2.130       .  S
Fe1313     O1322   1.981       .  S
O1314      C1321   1.276       .  A
O1315      C1329   1.266       .  A
O1316      C1321   1.263       .  A
O1317      C1320   1.274       .  A
O1318      C1330   1.282       .  A
O1319      C1332   1.270       .  A
C1320      O1325   1.281       .  A
C1320      C1377   1.503       .  S
C1321      C1347   1.504       .  S
O1323      C1326   1.267       .  A
O1324      C1326   1.266       .  A
C1326      C1337   1.482       .  S
O1327      C1332   1.268       .  A
O1328      C1330   1.273       .  A
C1329      O1331   1.274       .  A
C1329      C1637   1.501       .  S
C1330      C1764   1.483       .  S
C1332      C1397   1.479       .  S
C1333      C1334   1.402       .  A
C1333      C1338   1.411       .  A
C1333     Br1340   1.924       .  S
C1334      C1335   1.399       .  A
C1335      C1336   1.397       .  A
C1335     Br1342   1.924       .  S
C1336      C1337   1.413       .  A
C1336     Br1341   1.919       .  S
C1337      C1338   1.420       .  A
C1338     Br1339   1.931       .  S
C1343      C1344   1.412       .  A
C1343      C1348   1.419       .  A
C1343     Br1350   1.922       .  S
C1344      C1345   1.406       .  A
C1345      C1346   1.412       .  A
C1345     Br1352   1.920       .  S
C1346      C1347   1.410       .  A
C1346     Br1351   1.913       .  S
C1347      C1348   1.412       .  A
C1348     Br1349   1.922       .  S
C1353      C1354   1.414       .  A
C1353      C1358   1.418       .  A
C1353     Br1360   1.917       .  S
C1354      C1355   1.408       .  A
C1355      C1356   1.405       .  A
C1355     Br1362   1.927       .  S
C1356      C1357   1.413       .  A
C1356     Br1361   1.928       .  S
C1357      C1358   1.410       .  A
C1358     Br1359   1.924       .  S
C1363      C1364   1.419       .  A
C1363      C1368   1.415       .  A
C1363     Br1370   1.930   1_556  S
C1364      C1365   1.415       .  A
C1365      C1366   1.396       .  A
C1365     Br1372   1.926       .  S
C1366      C1367   1.404       .  A
C1366     Br1371   1.924       .  S
C1367      C1368   1.411       .  A
C1368     Br1369   1.924   1_556  S
C1373      C1374   1.410       .  A
C1373      C1378   1.395       .  A
C1373     Br1380   1.937       .  S
C1374      C1375   1.421       .  A
C1375      C1376   1.429       .  A
C1375     Br1382   1.925       .  S
C1376      C1377   1.414       .  A
C1376     Br1381   1.922       .  S
C1377      C1378   1.406       .  A
C1378     Br1379   1.911       .  S
C1383      C1384   1.404       .  A
C1383      C1388   1.404       .  A
C1383     Br1390   1.932       .  S
C1384      C1385   1.403       .  A
C1385      C1386   1.404       .  A
C1385     Br1392   1.921       .  S
C1386      C1387   1.415       .  A
C1386     Br1391   1.932       .  S
C1387      C1388   1.409       .  A
C1388     Br1389   1.914       .  S
C1393      C1394   1.412       .  A
C1393      C1398   1.416       .  A
C1393     Br1400   1.926       .  S
C1394      C1395   1.414       .  A
C1395      C1396   1.397       .  A
C1395     Br1402   1.934       .  S
C1396      C1397   1.409       .  A
C1396     Br1401   1.940       .  S
C1397      C1398   1.413       .  A
C1398     Br1399   1.928       .  S
C1403      C1404   1.405       .  A
C1403      C1408   1.412       .  A
C1403     Br1410   1.926       .  S
C1404      C1405   1.409       .  A
C1405      C1406   1.419       .  A
C1405     Br1412   1.916       .  S
C1406      C1407   1.411       .  A
C1406     Br1411   1.918       .  S
C1407      C1408   1.415       .  A
C1408     Br1409   1.922       .  S
C1413      C1414   1.416       .  A
C1413      C1418   1.413       .  A
C1413     Br1420   1.925       .  S
C1414      C1415   1.417       .  A
C1415      C1416   1.395       .  A
C1415     Br1422   1.941       .  S
C1416      C1417   1.407       .  A
C1416     Br1421   1.933       .  S
C1417      C1418   1.408       .  A
C1418     Br1419   1.928       .  S
C1423      C1424   1.412       .  A
C1423      C1428   1.423       .  A
C1423     Br1430   1.922       .  S
C1424      C1425   1.409       .  A
C1425      C1426   1.404       .  A
C1425     Br1432   1.943       .  S
C1426      C1427   1.426       .  A
C1426     Br1431   1.936       .  S
C1427      C1428   1.420       .  A
C1428     Br1429   1.929       .  S
C1433      C1434   1.409       .  A
C1433      C1438   1.411       .  A
C1433     Br1440   1.920   1_556  S
C1434      C1435   1.401       .  A
C1435      C1436   1.403       .  A
C1435     Br1442   1.920       .  S
C1436      C1437   1.409       .  A
C1436     Br1441   1.911       .  S
C1437      C1438   1.417       .  A
C1438     Br1439   1.933   1_556  S
C1443      C1444   1.412       .  A
C1443      C1448   1.416       .  A
C1443     Br1450   1.917       .  S
C1444      C1445   1.409       .  A
C1445      C1446   1.412       .  A
C1445     Br1452   1.915       .  S
C1446      C1447   1.406       .  A
C1446     Br1451   1.914       .  S
C1447      C1448   1.408       .  A
C1448     Br1449   1.924       .  S
C1453      C1454   1.411       .  A
C1453     Br1460   1.930       .  S
C1454      C1455   1.404       .  A
C1455     Br1462   1.928       .  S
C1456      C1457   1.426   1_556  A
C1456     Br1461   1.932       .  S
C1457      C1458   1.420       .  A
C1458     Br1459   1.927       .  S
C1463      C1464   1.409       .  A
C1463      C1468   1.407   1_554  A
C1463     Br1470   1.933       .  S
C1464      C1465   1.409       .  A
C1465      C1466   1.407   1_554  A
C1465     Br1472   1.925       .  S
C1466      C1467   1.408       .  A
C1466     Br1471   1.929       .  S
C1467      C1468   1.412       .  A
C1468     Br1469   1.931       .  S
C1473      C1474   1.423       .  A
C1473      C1478   1.425       .  A
C1473     Br1480   1.927       .  S
C1474      C1475   1.415       .  A
C1475      C1476   1.404       .  A
C1475     Br1482   1.929       .  S
C1476      C1477   1.410       .  A
C1476     Br1481   1.925       .  S
C1477      C1478   1.412       .  A
C1478     Br1479   1.926       .  S
C1483      C1484   1.417       .  A
C1483      C3360   1.411   1_455  A
C1483     Br1490   1.937       .  S
C1484      C1485   1.421   1_554  A
C1485      C3358   1.410       .  A
C1485     Br1492   1.937       .  S
C1486      C3357   1.409       .  A
C1486      C1487   1.417       .  A
C1486     Br1491   1.934       .  S
C1487      C1488   1.425   1_556  A
C1488      C3355   1.406       .  A
C1488     Br1489   1.938       .  S
C1493      C1494   1.403       .  A
C1493      C1498   1.398   1_554  A
C1493     Br1500   1.937       .  S
C1494      C1495   1.409       .  A
C1495      C1496   1.408       .  A
C1495     Br1502   1.931       .  S
C1496      C1497   1.410   1_554  A
C1496     Br1501   1.927   1_554  S
C1497      C1498   1.414       .  A
C1498     Br1499   1.927       .  S
C1503      C1504   1.412       .  A
C1503      C1508   1.404       .  A
C1503     Br1510   1.925       .  S
C1504      C1505   1.412       .  A
C1505      C1506   1.418       .  A
C1505     Br1512   1.928   1_554  S
C1506      C1507   1.422       .  A
C1506     Br1511   1.931   1_554  S
C1507      C1508   1.412       .  A
C1508     Br1509   1.935       .  S
C1513      C1514   1.413       .  A
C1513      C1518   1.423       .  A
C1513     Br1520   1.929       .  S
C1514      C1515   1.403       .  A
C1515      C1516   1.403       .  A
C1515     Br1522   1.942       .  S
C1516      C1517   1.435       .  A
C1516     Br1521   1.948       .  S
C1517      C1518   1.422       .  A
C1518     Br1519   1.929       .  S
C1523      C1524   1.406       .  A
C1523      C1528   1.402       .  A
C1523     Br1530   1.927       .  S
C1524      C1525   1.404       .  A
C1525      C1526   1.410       .  A
C1525     Br1532   1.923       .  S
C1526      C1527   1.421       .  A
C1526     Br1531   1.931       .  S
C1527      C1528   1.410       .  A
C1528     Br1529   1.924       .  S
C1533      C1534   1.406       .  A
C1533      C1538   1.405       .  A
C1533     Br1540   1.914       .  S
C1534      C1535   1.413       .  A
C1535      C1536   1.411       .  A
C1535     Br1542   1.927       .  S
C1536      C1537   1.407       .  A
C1536     Br1541   1.920       .  S
C1537      C1538   1.405       .  A
C1538     Br3411   1.918   1_455  S
Br1539     C3410   1.921       .  S
C1543      C3416   1.414   1_455  A
C1543      C1548   1.410       .  A
C1543     Br1550   1.934       .  S
C1544      C3415   1.414       .  A
C1544      C1545   1.421   1_556  A
C1545      C3418   1.411       .  A
C1545     Br1552   1.934       .  S
C1546      C3417   1.408   1_455  A
C1546      C1547   1.403       .  A
C1546     Br1551   1.929       .  S
C1547      C1548   1.416   1_554  A
C1548     Br1549   1.935       .  S
C1553      C1554   1.405       .  A
C1553     Br1560   1.934       .  S
C1554      C1555   1.409   1_556  A
C1555     Br1562   1.930       .  S
C1556      C1557   1.416       .  A
C1556     Br1561   1.932       .  S
C1557      C1558   1.424   1_554  A
C1558     Br1559   1.934       .  S
C1563      C1564   1.408       .  A
C1563      C1568   1.405       .  A
C1563     Br1570   1.925       .  S
C1564      C1565   1.407   1_554  A
C1565      C1566   1.403       .  A
C1565     Br1572   1.916       .  S
C1566      C1567   1.409   1_556  A
C1566     Br1571   1.925       .  S
C1567      C1568   1.403       .  A
C1568     Br1569   1.914       .  S
C1573      C1574   1.409       .  A
C1573      C1578   1.406       .  A
C1573     Br1580   1.926       .  S
C1574      C1575   1.415       .  A
C1575      C1576   1.424       .  A
C1575     Br1582   1.922       .  S
C1576      C1577   1.415       .  A
C1576     Br1581   1.923   1_455  S
C1577      C1578   1.412       .  A
C1578     Br3451   1.929       .  S
Br1579     C3450   1.933       .  S
C1583      C1584   1.396   1_556  A
C1583      C1588   1.407       .  A
C1583     Br1590   1.921       .  S
C1584      C1585   1.397       .  A
C1585      C1586   1.403       .  A
C1585     Br1592   1.928       .  S
C1586      C1587   1.417       .  A
C1586     Br1591   1.922       .  S
C1587      C1588   1.426   1_554  A
C1588     Br1589   1.931       .  S
C1593      C1594   1.405       .  A
C1593      C1598   1.410       .  A
C1593     Br1600   1.926       .  S
C1594      C1595   1.402       .  A
C1595      C1596   1.401       .  A
C1595     Br1602   1.920       .  S
C1596      C1597   1.414       .  A
C1596     Br1601   1.933       .  S
C1597      C1598   1.409       .  A
C1598     Br1599   1.920       .  S
C1603      C1604   1.407       .  A
C1603      C1608   1.409       .  A
C1603     Br1610   1.930       .  S
C1604      C1605   1.400       .  A
C1605      C1606   1.408       .  A
C1605     Br1612   1.920       .  S
C1606      C1607   1.417       .  A
C1606     Br1611   1.927   1_565  S
C1607      C1608   1.412       .  A
C1608     Br1609   1.923       .  S
C1613      C1614   1.416       .  A
C1613      C1618   1.401       .  A
C1613     Br1620   1.940       .  S
C1614      C1615   1.418       .  A
C1615      C1616   1.417       .  A
C1615     Br1622   1.923       .  S
C1616      C1617   1.409       .  A
C1616     Br1621   1.928       .  S
C1617      C1618   1.411       .  A
C1618     Br1619   1.935       .  S
C1623      C1624   1.409       .  A
C1623      C1628   1.421       .  A
C1624      C1625   1.409       .  A
C1625      C1626   1.409       .  A
C1625     Br1632   1.943       .  S
C1626      C1627   1.435       .  A
C1626     Br1631   1.945       .  S
C1627      C1628   1.429       .  A
C1628     Br1629   1.933       .  S
C1633      C1634   1.423       .  A
C1633      C1638   1.416       .  A
C1633     Br1640   1.935       .  S
C1634      C1635   1.424       .  A
C1635      C1636   1.418       .  A
C1635     Br1642   1.927       .  S
C1636      C1637   1.410       .  A
C1636     Br1641   1.932       .  S
C1637      C1638   1.415       .  A
C1638     Br1639   1.936       .  S
C1643      C1644   1.420       .  A
C1643      C1648   1.413       .  A
C1643     Br1650   1.928       .  S
C1644      C1645   1.417       .  A
C1645      C1646   1.412       .  A
C1645     Br1652   1.936       .  S
C1646      C1647   1.420       .  A
C1646     Br1651   1.936   1_565  S
C1647      C1648   1.411       .  A
C1653      C1654   1.414       .  A
C1653      C1658   1.412       .  A
C1653     Br1660   1.937       .  S
C1654      C1655   1.409       .  A
C1655      C1656   1.415       .  A
C1655     Br1662   1.933       .  S
C1656      C1657   1.423       .  A
C1656     Br1661   1.933       .  S
C1657      C1658   1.421       .  A
C1658     Br1659   1.938       .  S
C1663      C1664   1.415       .  A
C1663      C1668   1.405       .  A
C1663     Br3542   1.937       .  S
C1664      C1665   1.422       .  A
C1665      C1666   1.414       .  A
C1665     Br1672   1.932       .  S
C1666      C1667   1.407       .  A
C1666     Br1671   1.932       .  S
C1667      C1668   1.405       .  A
C1668     Br3541   1.922       .  S
Br1669     C3540   1.929       .  S
Br1670     C3535   1.937       .  S
C1673      C1674   1.410       .  A
C1673      C1678   1.413       .  A
C1673     Br1680   1.930       .  S
C1674      C1675   1.409       .  A
C1675      C1676   1.412       .  A
C1675     Br1682   1.922       .  S
C1676      C1677   1.411       .  A
C1676     Br1681   1.931       .  S
C1677      C1678   1.410       .  A
C1678     Br1679   1.916       .  S
C1683      C1684   1.410       .  A
C1683      C1688   1.413       .  A
C1683     Br1690   1.930       .  S
C1684      C1685   1.412       .  A
C1685      C1686   1.405       .  A
C1685     Br1692   1.925       .  S
C1686      C1687   1.413       .  A
C1686     Br1691   1.938       .  S
C1687      C1688   1.415       .  A
C1688     Br1689   1.926       .  S
C1693      C1694   1.420       .  A
C1693      C1698   1.411       .  A
C1693     Br1700   1.935       .  S
C1694      C1695   1.418       .  A
C1695      C1696   1.409       .  A
C1695     Br1702   1.930       .  S
C1696      C1697   1.407       .  A
C1696     Br1701   1.932       .  S
C1697      C1698   1.407       .  A
C1703      C1704   1.419       .  A
C1703      C1708   1.413       .  A
C1704      C1705   1.411       .  A
C1705      C1706   1.400       .  A
C1705     Br1712   1.933       .  S
C1706      C1707   1.414       .  A
C1706     Br1711   1.931       .  S
C1707      C2918   1.484   1_455  S
C1707      C1708   1.414       .  A
C1708     Br3581   1.934       .  S
Br1709     C3580   1.934       .  S
C1713      C1714   1.427       .  A
C1713      C1718   1.414       .  A
C1713     Br3592   1.938       .  S
C1714      C1715   1.431       .  A
C1715      C1716   1.415       .  A
C1715     Br1722   1.935       .  S
C1716      C1717   1.404       .  A
C1716     Br1721   1.933       .  S
C1717      C1718   1.409       .  A
C1718     Br3591   1.936       .  S
Br1719     C3590   1.930       .  S
Br1720     C3585   1.936       .  S
C1723      C1724   1.424       .  A
C1723      C1728   1.417       .  A
C1723     Br1730   1.934       .  S
C1724      C1725   1.417       .  A
C1725      C1726   1.407       .  A
C1725     Br1732   1.939       .  S
C1726      C1727   1.415       .  A
C1727      C1728   1.412       .  A
C1728     Br1729   1.929       .  S
C1733      C1734   1.408       .  A
C1733      C1738   1.400       .  A
C1733     Br1740   1.932       .  S
C1734      C2868   1.491       .  S
C1734      C1735   1.416       .  A
C1735      C1736   1.416       .  A
C1735     Br3614   1.933       .  S
C1736      C1737   1.422       .  A
C1736     Br1741   1.935       .  S
C1737      C1738   1.423       .  A
C1738     Br1739   1.937       .  S
Br1742     C3607   1.933       .  S
C1743      C1744   1.409   1_545  A
C1743     Br1750   1.928       .  S
C1744      C1745   1.409       .  A
C1745     Br1752   1.913       .  S
C1746      C1747   1.409       .  A
C1746     Br1751   1.929       .  S
C1747      C1748   1.409       .  A
C1748     Br1749   1.912       .  S
C1753      C3626   1.410       .  A
C1753      C1758   1.413       .  A
C1753     Br1760   1.928       .  S
C1754      C3625   1.410       .  A
C1754      C1755   1.406       .  A
C1755      C1756   1.412       .  A
C1755     Br1762   1.915       .  S
C1756      C3629   1.410   1_455  A
C1756     Br1761   1.929       .  S
C1757      C3628   1.410       .  A
C1757      C1758   1.407       .  A
C1758     Br1759   1.920       .  S
C1763      C1764   1.407       .  A
C1763      C1768   1.409       .  A
C1763     Br1770   1.923       .  S
C1764      C1765   1.405       .  A
C1765      C1766   1.415       .  A
C1765     Br1772   1.930       .  S
C1766      C1767   1.424       .  A
C1766     Br1771   1.930       .  S
C1767      C1768   1.418       .  A
C1768     Br1769   1.936       .  S
C1773      C1774   1.407       .  A
C1773      C1778   1.412       .  A
C1773     Br1780   1.931       .  S
C1774      C1775   1.411       .  A
C1775      C1776   1.409       .  A
C1775     Br3654   1.928   1_455  S
C1776      C1777   1.416       .  A
C1776     Br1781   1.936   1_455  S
C1777      C1778   1.417       .  A
C1778     Br1779   1.924       .  S
Br1782     C3647   1.929       .  S
C1783      C1784   1.425       .  A
C1783      C1788   1.419       .  A
C1783     Br3662   1.936       .  S
C1784      C2846   1.511       .  S
C1784      C1785   1.423       .  A
C1785      C1786   1.410       .  A
C1785     Br1792   1.945       .  S
C1786      C1787   1.422       .  A
C1786     Br1791   1.940       .  S
C1787      C1788   1.418       .  A
Br1790     C3655   1.934       .  S
C1793      C1794   1.419       .  A
C1793      C1798   1.417       .  A
C1793     Br1800   1.934       .  S
C1794      C1795   1.413       .  A
C1795      C1796   1.403       .  A
C1795     Br1802   1.939       .  S
C1796      C1797   1.425       .  A
C1796     Br1801   1.941       .  S
C1797      C1798   1.421       .  A
C1803      C1804   1.403       .  A
C1803      C1808   1.410       .  A
C1803     Br1810   1.910       .  S
C1804      C1805   1.407       .  A
C1805      C1806   1.414       .  A
C1805     Br1812   1.924       .  S
C1806      C1807   1.408       .  A
C1806     Br1811   1.915       .  S
C1807      C1808   1.408       .  A
C1808     Br1809   1.927       .  S
C1813      C1814   1.414       .  A
C1813      C1818   1.417       .  A
C1813     Br1820   1.930       .  S
C1814      C1815   1.410       .  A
C1815      C1816   1.409       .  A
C1815     Br3694   1.932       .  S
C1816      C1817   1.413       .  A
C1816     Br3693   1.927       .  S
C1817      C1818   1.411       .  A
C1818     Br1819   1.921       .  S
Br1821     C3688   1.926   1_455  S
Br1822     C3687   1.932       .  S
C1823      C1824   1.415       .  A
C1823      C1828   1.410       .  A
C1823     Br1830   1.936       .  S
C1824      C1825   1.414       .  A
C1825      C1826   1.408       .  A
C1825     Br1832   1.937       .  S
C1826      C1827   1.415       .  A
C1826     Br1831   1.932       .  S
C1827      C1828   1.418       .  A
C1828     Br1829   1.936       .  S
C1833      C1834   1.411       .  A
C1833      C1838   1.415       .  A
C1833     Br1840   1.926       .  S
C1834      C1835   1.409       .  A
C1835      C1836   1.399       .  A
C1836      C1837   1.410       .  A
C1836     Br1841   1.932       .  S
C1837      C1838   1.411       .  A
C1838     Br1839   1.927       .  S
C1843      C1844   1.410       .  A
C1843      C3720   1.411       .  A
C1843     Br1850   1.928       .  S
C1844      C1845   1.404       .  A
C1845      C3718   1.409       .  A
C1845     Br1852   1.921       .  S
C1846      C3717   1.411   1_455  A
C1846      C1847   1.410       .  A
C1846     Br1851   1.922   1_455  S
C1847      C1848   1.407       .  A
C1848      C3715   1.410       .  A
C1848     Br1849   1.914       .  S
C1853      C1854   1.407       .  A
C1853     Br1860   1.922       .  S
C1855      C1856   1.412       .  A
C1856      C1857   1.407       .  A
C1856     Br1861   1.920       .  S
C1857      C1858   1.414   1_565  A
C1858     Br1859   1.930       .  S
C1863      C1864   1.415       .  A
C1863      C1868   1.401       .  A
C1863     Br1870   1.928       .  S
C1864      C1865   1.420       .  A
C1865      C1866   1.417       .  A
C1865     Br1872   1.931       .  S
C1866      C1867   1.415       .  A
C1866     Br1871   1.933   1_455  S
C1867      C2830   1.486   1_455  S
C1867      C1868   1.409       .  A
C1868     Br1869   1.932       .  S
Fe1873     O1889   2.061       .  S
Fe1873     O1879   2.042       .  S
Fe1873     O1886   2.046       .  S
Fe1873     O1878   2.075       .  S
Fe1873     O1884   1.944       .  S
Fe1874     O1877   2.090       .  S
Fe1874     O1881   2.068       .  S
Fe1874     O1885   2.101       .  S
Fe1874     O1890   2.059       .  S
Fe1874     O1884   1.955       .  S
Fe1875     O1893   2.068       .  S
Fe1875     O1880   2.076       .  S
Fe1875     O1887   2.122       .  S
Fe1875     O1876   2.092       .  S
Fe1875     O1884   1.957       .  S
O1876      C1883   1.271       .  A
O1877      C1891   1.275       .  A
O1878      C1883   1.269       .  A
O1879      C1882   1.264       .  A
O1880      C1892   1.272       .  A
O1881      C1894   1.269       .  A
C1882      O1887   1.278       .  A
C1882      C2780   1.487       .  S
C1883      C2790   1.490       .  S
O1885      C1888   1.274       .  A
O1886      C1888   1.266       .  A
C1888      C3706   1.480   1_545  S
O1889      C1894   1.269       .  A
O1890      C1892   1.269       .  A
C1891      O1893   1.273       .  A
C1891      C2750   1.483       .  S
C1892      C2760   1.484       .  S
Fe1895     O1911   2.085       .  S
Fe1895     O1901   2.060       .  S
Fe1895     O1908   2.082       .  S
Fe1895     O1900   2.059       .  S
Fe1895     O1906   1.980       .  S
Fe1896     O1899   2.057       .  S
Fe1896     O1903   2.053       .  S
Fe1896     O1907   2.046       .  S
Fe1896     O1912   2.060       .  S
Fe1896     O1906   1.974       .  S
Fe1897     O1915   2.105       .  S
Fe1897     O1902   2.096       .  S
Fe1897     O1909   2.086       .  S
Fe1897     O1898   2.093       .  S
Fe1897     O1906   1.990       .  S
O1898      C1905   1.275       .  A
O1899      C1913   1.266       .  A
O1900      C1905   1.268       .  A
O1901      C1904   1.269       .  A
O1902      C1914   1.272       .  A
O1903      C1916   1.268       .  A
C1904      O1909   1.272       .  A
C1904      C2703   1.500       .  S
C1905      C2713   1.498       .  S
O1907      C1910   1.265       .  A
O1908      C1910   1.269       .  A
O1911      C1916   1.270       .  A
O1912      C1914   1.268       .  A
C1913      O1915   1.274       .  A
C1913      C2743   1.488       .  S
C1914      C2783   1.484       .  S
C1916      C2730   1.505       .  S
Fe1917     O1933   2.044       .  S
Fe1917     O1923   2.055       .  S
Fe1917     O1930   2.038       .  S
Fe1917     O1922   2.052       .  S
Fe1917     O1928   1.973       .  S
Fe1918     O1921   2.068       .  S
Fe1918     O1925   2.097       .  S
Fe1918     O1929   2.069       .  S
Fe1918     O1934   2.078       .  S
Fe1918     O1928   1.978       .  S
Fe1919     O1937   2.071       .  S
Fe1919     O1924   2.080       .  S
Fe1919     O1931   2.115       .  S
Fe1919     O1920   2.103       .  S
Fe1919     O1928   1.989       .  S
O1920      C1927   1.272       .  A
O1921      C1935   1.267       .  A
O1922      C1927   1.264       .  A
O1923      C1926   1.267       .  A
O1924      C1936   1.271       .  A
O1925      C1938   1.273       .  A
C1926      O1931   1.277       .  A
C1926      C2680   1.491       .  S
C1927      C2690   1.487       .  S
O1929      C1932   1.269       .  A
O1930      C1932   1.263       .  A
O1933      C1938   1.263       .  A
O1934      C1936   1.273       .  A
C1935      O1937   1.272       .  A
C1935      C2660   1.499       .  S
C1936      C2650   1.510       .  S
C1938      C3669   1.502       .  S
Fe1939     O1955   2.089       .  S
Fe1939     O1945   2.056       .  S
Fe1939     O1952   2.078       .  S
Fe1939     O1944   2.058       .  S
Fe1939     O1950   1.986       .  S
Fe1940     O1943   2.066       .  S
Fe1940     O1947   2.046       .  S
Fe1940     O1951   2.053       .  S
Fe1940     O1956   2.065       .  S
Fe1940     O1950   1.972       .  S
Fe1941     O1959   2.099       .  S
Fe1941     O1946   2.116       .  S
Fe1941     O1953   2.098       .  S
Fe1941     O1942   2.076       .  S
Fe1941     O1950   1.988       .  S
O1942      C1949   1.272       .  A
O1943      C1957   1.270       .  A
O1944      C1949   1.267       .  A
O1945      C1948   1.268       .  A
O1946      C1958   1.275       .  A
O1947      C1960   1.265       .  A
C1948      O1953   1.275       .  A
C1948      C2623   1.498       .  S
C1949      C2630   1.491       .  S
O1951      C1954   1.269       .  A
O1952      C1954   1.270       .  A
C1954      C3576   1.494   1_545  S
O1955      C1960   1.270       .  A
O1956      C1958   1.266       .  A
C1957      O1959   1.273       .  A
C1957      C2740   1.488       .  S
C1958      C2683   1.499       .  S
C1960      C2800   1.499       .  S
Fe1961     O1977   2.070       .  S
Fe1961     O1967   2.100       .  S
Fe1961     O1974   2.104       .  S
Fe1961     O1966   2.065       .  S
Fe1961     O1972   1.953       .  S
Fe1962     O1965   2.038       .  S
Fe1962     O1969   2.060       .  S
Fe1962     O1973   2.053       .  S
Fe1962     O1978   2.074       .  S
Fe1962     O1972   1.940       .  S
Fe1963     O1981   2.118       .  S
Fe1963     O1968   2.096       .  S
Fe1963     O1975   2.066       .  S
Fe1963     O1964   2.105       .  S
Fe1963     O1972   1.945       .  S
O1964      C1971   1.278       .  A
O1965      C1979   1.264       .  A
O1966      C1971   1.270       .  A
O1967      C1970   1.274       .  A
O1968      C1980   1.274       .  A
O1969      C1982   1.267       .  A
C1970      O1975   1.271       .  A
C1970      C2600   1.503       .  S
C1971      C2593   1.506       .  S
O1973      C1976   1.268       .  A
O1974      C1976   1.276       .  A
C1976      C2773   1.482       .  S
O1977      C1982   1.269       .  A
O1978      C1980   1.268       .  A
C1979      O1981   1.277       .  A
C1979      C2693   1.484       .  S
C1980      C2610   1.488       .  S
Fe1983     O1999   2.131       .  S
Fe1983     O1989   2.081       .  S
Fe1983     O1996   2.076       .  S
Fe1983     O1988   2.108       .  S
Fe1983     O1994   1.949       .  S
Fe1984     O1987   2.059       .  S
Fe1984     O1991   2.030       .  S
Fe1984     O1995   2.060       .  S
Fe1984     O2000   2.026       .  S
Fe1984     O1994   1.954       .  S
Fe1985     O2003   2.102       .  S
Fe1985     O1990   2.136       .  S
Fe1985     O1997   2.090       .  S
Fe1985     O1986   2.084       .  S
Fe1985     O1994   1.956       .  S
O1986      C1993   1.274       .  A
O1987      C2001   1.262       .  A
O1988      C1993   1.279       .  A
O1989      C1992   1.274       .  A
O1990      C2002   1.284       .  A
O1991      C2004   1.262       .  A
C1992      O1997   1.275       .  A
C1992      C2580   1.501       .  S
C1993      C2570   1.524       .  S
O1995      C1998   1.265       .  A
O1996      C1998   1.267       .  A
C1998      C2673   1.488       .  S
O1999      C2004   1.281       .  A
O2000      C2002   1.265       .  A
C2001      O2003   1.270       .  A
C2001      C2793   1.489       .  S
C2002      C2613   1.487       .  S
C2004      C3659   1.518       .  S
Fe2005     O2021   2.059       .  S
Fe2005     O2011   2.053       .  S
Fe2005     O2018   2.073       .  S
Fe2005     O2010   2.053       .  S
Fe2005     O2016   1.984       .  S
Fe2006     O2009   2.056       .  S
Fe2006     O2013   2.079       .  S
Fe2006     O2017   2.041       .  S
Fe2006     O2022   2.063       .  S
Fe2006     O2016   1.954       .  S
Fe2007     O2961   2.078       .  S
Fe2007     O2948   2.103       .  S
Fe2007     O2019   2.094   1_565  S
Fe2007     O2008   2.068       .  S
Fe2007     O2952   1.981       .  S
O2008      C2015   1.265       .  A
O2009      C2023   1.265       .  A
O2010      C2951   1.262       .  A
O2011      C2950   1.271       .  A
O2012     Fe2943   2.093       .  S
O2012      C2024   1.276       .  A
O2013      C2026   1.271       .  A
C2014      O2947   1.269   1_545  A
C2014      O2019   1.279       .  A
C2014      C2763   1.481       .  S
C2015      O2946   1.264       .  A
C2015      C2633   1.472   1_565  S
O2016     Fe2943   1.989       .  S
O2017      C2020   1.266       .  A
O2018      C2020   1.270       .  A
C2020      C2550   1.478       .  S
O2021      C2026   1.263       .  A
O2022      C2024   1.272       .  A
C2023      O2025   1.269       .  A
C2023      C2543   1.491       .  S
C2024      C2560   1.496       .  S
O2025     Fe2943   2.084       .  S
C2026      C2533   1.485       .  S
Fe2027     O2043   2.082       .  S
Fe2027     O2033   2.016       .  S
Fe2027     O2040   2.040       .  S
Fe2027     O2032   2.086       .  S
Fe2027     O2038   1.915       .  S
Fe2028     O2031   2.087       .  S
Fe2028     O2035   2.048       .  S
Fe2028     O2039   2.098       .  S
Fe2028     O2044   2.031       .  S
Fe2028     O2038   1.944       .  S
Fe2029     O2047   2.092       .  S
Fe2029     O2034   2.126       .  S
Fe2029     O2041   2.143       .  S
Fe2029     O2030   2.097       .  S
Fe2029     O2038   1.945       .  S
O2030      C2037   1.276       .  A
O2031      C2045   1.272       .  A
O2032      C2037   1.274       .  A
O2033      C2036   1.252       .  A
O2034      C2046   1.284       .  A
O2035      C2048   1.262       .  A
C2036      O2041   1.281       .  A
C2036      C2563   1.519       .  S
C2037      C2510   1.496       .  S
O2039      C2042   1.273       .  A
O2040      C2042   1.263       .  A
C2042      C2500   1.469       .  S
O2043      C2048   1.274       .  A
O2044      C2046   1.267       .  A
C2045      O2047   1.277       .  A
C2045      C2493   1.500       .  S
C2046      C2483   1.486       .  S
C2048      C2520   1.468       .  S
Fe2049     O2065   2.072       .  S
Fe2049     O2055   2.064       .  S
Fe2049     O2062   2.074       .  S
Fe2049     O2054   2.056       .  S
Fe2049     O2060   1.986       .  S
Fe2050     O2053   2.056       .  S
Fe2050     O2057   2.044       .  S
Fe2050     O2061   2.050       .  S
Fe2050     O2066   2.046       .  S
Fe2050     O2060   1.962       .  S
Fe2051     O2056   2.095   1_655  S
Fe2051     O2063   2.085       .  S
Fe2051     O2052   2.104       .  S
O2052      C2059   1.279       .  A
O2053      C2067   1.270       .  A
O2057      C2070   1.267       .  A
C2058      O2063   1.269       .  A
C2058      C2603   1.483       .  S
C2059      C2753   1.490       .  S
O2061      C2064   1.268       .  A
O2062      C2064   1.265       .  A
C2064      C2463   1.494       .  S
O2065      C2070   1.269       .  A
O2066      C2068   1.262       .  A
C2067      O2069   1.281       .  A
C2067      C2513   1.505       .  S
C2068      C2473   1.478       .  S
C2070      C2553   1.473       .  S
Fe2071     O2087   2.074       .  S
Fe2071     O2077   2.032       .  S
Fe2071     O2084   2.062       .  S
Fe2071     O2076   2.044       .  S
Fe2071     O2082   1.969       .  S
Fe2072     O2075   2.042       .  S
Fe2072     O2079   2.076       .  S
Fe2072     O2083   2.060       .  S
Fe2072     O2088   2.045       .  S
Fe2072     O2082   1.945       .  S
Fe2073     O2091   2.109       .  S
Fe2073     O2078   2.086       .  S
Fe2073     O2085   2.066       .  S
Fe2073     O2074   2.096       .  S
Fe2073     O2082   1.978       .  S
O2074      C2081   1.282       .  A
O2075      C2089   1.268       .  A
O2076      C2081   1.271       .  A
O2077      C2080   1.259       .  A
O2078      C2090   1.270       .  A
O2079      C2092   1.274       .  A
C2080      O2085   1.265       .  A
C2080      C2430   1.461       .  S
C2081      C2420   1.481       .  S
O2083      C2086   1.263       .  A
O2084      C2086   1.262       .  A
C2086      C2503   1.473       .  S
O2087      C2092   1.272       .  A
O2088      C2090   1.265       .  A
C2089      O2091   1.277       .  A
C2089      C2450   1.492       .  S
C2090      C2470   1.483       .  S
C2092      C2440   1.487       .  S
Fe2093     O2109   2.075       .  S
Fe2093     O2099   2.051       .  S
Fe2093     O2106   2.066       .  S
Fe2093     O2098   2.039       .  S
Fe2093     O2104   1.982       .  S
Fe2094     O2097   2.077       .  S
Fe2094     O2101   2.040       .  S
Fe2094     O2105   2.068       .  S
Fe2094     O2110   2.029       .  S
Fe2094     O2104   1.955       .  S
Fe2095     O2113   2.074       .  S
Fe2095     O2100   2.138       .  S
Fe2095     O2107   2.124       .  S
Fe2095     O2096   2.086       .  S
Fe2095     O2104   1.985       .  S
O2096      C2103   1.269       .  A
O2097      C2111   1.270       .  A
O2098      C2103   1.260       .  A
O2099      C2102   1.270       .  A
O2100      C2112   1.285       .  A
O2101      C2114   1.263       .  A
C2102      O2107   1.285       .  A
C2102      C2393   1.507       .  S
C2103      C2400   1.477       .  S
O2105      C2108   1.270       .  A
O2106      C2108   1.267       .  A
C2108      C2443   1.489       .  S
O2109      C2114   1.266       .  A
O2110      C2112   1.264       .  A
C2111      O2113   1.266       .  A
C2111      C2540   1.487       .  S
C2112      C2413   1.502       .  S
C2114      C2523   1.492       .  S
Fe2115     O2131   2.044       .  S
Fe2115     O2121   2.047       .  S
Fe2115     O2128   2.061       .  S
Fe2115     O2120   2.075       .  S
Fe2115     O2126   1.930       .  S
Fe2116     O2119   2.066       .  S
Fe2116     O2123   2.083       .  S
Fe2116     O2127   2.105       .  S
Fe2116     O2132   2.055       .  S
Fe2116     O2126   1.952       .  S
Fe2117     O2135   2.107       .  S
Fe2117     O2122   2.104       .  S
Fe2117     O2129   2.144       .  S
Fe2117     O2118   2.111       .  S
Fe2117     O2126   1.962       .  S
O2118      C2125   1.277       .  A
O2119      C2133   1.275       .  A
O2120      C2125   1.264       .  A
O2121      C2124   1.261       .  A
O2122      C2134   1.274       .  A
O2123      C2136   1.264       .  A
C2124      O2129   1.280       .  A
C2124      C2410   1.511       .  S
C2125      C2453   1.512       .  S
O2127      C2130   1.280       .  A
O2128      C2130   1.274       .  A
C2130      C2460   1.490       .  S
O2131      C2136   1.259       .  A
O2132      C2134   1.267       .  A
C2133      O2135   1.285       .  A
C2133      C2590   1.502       .  S
C2134      C2620   1.490       .  S
C2136      C2530   1.475       .  S
Fe2137     O2153   2.059       .  S
Fe2137     O2143   2.040       .  S
Fe2137     O2150   2.034       .  S
Fe2137     O2142   2.043       .  S
Fe2137     O2148   1.954       .  S
Fe2138     O2141   2.048       .  S
Fe2138     O2145   2.064       .  S
Fe2138     O2149   2.079       .  S
Fe2138     O2154   2.066       .  S
Fe2138     O2148   1.981       .  S
Fe2139     O2157   2.104       .  S
Fe2139     O2144   2.093       .  S
Fe2139     O2151   2.112       .  S
Fe2139     O2140   2.116       .  S
Fe2139     O2148   1.990       .  S
O2140      C2147   1.279       .  A
O2141      C2155   1.271       .  A
O2142      C2147   1.267       .  A
O2143      C2146   1.262       .  A
O2144      C2156   1.271       .  A
O2145      C2158   1.263       .  A
C2146      O2151   1.274       .  A
C2146      C2383   1.489       .  S
C2147      C2360   1.503       .  S
O2149      C2152   1.274       .  A
O2150      C2152   1.265       .  A
C2152      C2350   1.475       .  S
O2153      C2158   1.264       .  A
O2154      C2156   1.265       .  A
C2155      O2157   1.281       .  A
C2155      C2423   1.503       .  S
C2156      C2390   1.492       .  S
C2158      C2373   1.482       .  S
Fe2159     O2175   2.095       .  S
Fe2159     O2165   2.053       .  S
Fe2159     O2172   2.050       .  S
Fe2159     O2164   2.072       .  S
Fe2159     O2170   1.982       .  S
Fe2160     O2163   2.082       .  S
Fe2160     O2167   2.047       .  S
Fe2160     O2171   2.081       .  S
Fe2160     O2176   2.061       .  S
Fe2160     O2170   1.960       .  S
Fe2161     O2179   2.111       .  S
Fe2161     O2166   2.105       .  S
Fe2161     O2173   2.088       .  S
Fe2161     O2162   2.092       .  S
O2162      C2169   1.277       .  A
O2163      C2177   1.273       .  A
O2167      C2180   1.266       .  A
C2168      O2173   1.272       .  A
C2168      C2653   1.484       .  S
C2169      C2710   1.487       .  S
O2171      C2174   1.272       .  A
O2172      C2174   1.264       .  A
C2174      C2323   1.479       .  S
O2175      C2180   1.274       .  A
O2176      C2178   1.266       .  A
C2177      C2343   1.500       .  S
C2178      C2380   1.499       .  S
C2180      C2330   1.485       .  S
Fe2181     O2197   2.077       .  S
Fe2181     O2187   2.045       .  S
Fe2181     O2194   2.059       .  S
Fe2181     O2186   2.050       .  S
Fe2181     O2192   1.988       .  S
Fe2182     O2185   2.073       .  S
Fe2182     O2189   2.058       .  S
Fe2182     O2193   2.074       .  S
Fe2182     O2198   2.051       .  S
Fe2182     O2192   1.957       .  S
Fe2183     O2201   2.110       .  S
Fe2183     O2188   2.119       .  S
Fe2183     O2195   2.112       .  S
Fe2183     O2184   2.082       .  S
Fe2183     O2192   1.983       .  S
O2184      C2191   1.271       .  A
O2185      C2199   1.271       .  A
O2186      C2191   1.264       .  A
O2187      C2190   1.269       .  A
O2188      C2200   1.277       .  A
O2189      C2202   1.265       .  A
C2190      O2195   1.281       .  A
C2190      C2480   1.493       .  S
C2191      C2403   1.479       .  S
O2193      C2196   1.273       .  A
O2194      C2196   1.265       .  A
C2196      C2303   1.477       .  S
O2197      C2202   1.266       .  A
O2198      C2200   1.266       .  A
C2199      O2201   1.277       .  A
C2199      C2340   1.495       .  S
C2200      C2310   1.502       .  S
C2202      C2370   1.479       .  S
Fe2203     O2219   2.076       .  S
Fe2203     O2209   2.049       .  S
Fe2203     O2216   2.065       .  S
Fe2203     O2208   2.065       .  S
Fe2203     O2214   1.986       .  S
Fe2204     O2207   2.050       .  S
Fe2204     O2211   2.035       .  S
Fe2204     O2215   2.042       .  S
Fe2204     O2220   2.059       .  S
Fe2204     O2214   1.962       .  S
Fe2205     O2223   2.122       .  S
Fe2205     O2210   2.110       .  S
Fe2205     O2217   2.087       .  S
Fe2205     O2206   2.098       .  S
Fe2205     O2214   1.987       .  S
O2206      C2213   1.274       .  A
O2207      C2221   1.262       .  A
O2208      C2213   1.267       .  A
O2209      C2212   1.269       .  A
O2210      C2222   1.278       .  A
O2211      C2224   1.263       .  A
C2212      O2217   1.277       .  A
C2212      C2433   1.476       .  S
C2213      C2490   1.490       .  S
O2215      C2218   1.267       .  A
O2216      C2218   1.268       .  A
C2218      C2353   1.469       .  S
O2219      C2224   1.268       .  A
O2220      C2222   1.269       .  A
C2221      O2223   1.276       .  A
C2221      C2280   1.498       .  S
C2222      C2293   1.496       .  S
C2224      C2300   1.490       .  S
Fe2225     O2241   2.069       .  S
Fe2225     O2231   2.057       .  S
Fe2225     O2238   2.077       .  S
Fe2225     O2230   2.059       .  S
Fe2225     O2236   1.973       .  S
Fe2226     O2229   2.072       .  S
Fe2226     O2233   2.049       .  S
Fe2226     O2237   2.048       .  S
Fe2226     O2242   2.057       .  S
Fe2226     O2236   1.951       .  S
Fe2227     O2245   2.102       .  S
Fe2227     O2232   2.124       .  S
Fe2227     O2239   2.095       .  S
Fe2227     O2228   2.094       .  S
Fe2227     O3172   1.972       .  S
O2228      C2235   1.280       .  A
O2229      C2243   1.269       .  A
O2230      C3171   1.274   1_545  A
O2231      C3170   1.263       .  A
O2232      C3180   1.279       .  A
O2233      C2246   1.267       .  A
C2234      O3167   1.265       .  A
C2234      O2239   1.273       .  A
C2234      C2583   1.500       .  S
C2235      O3166   1.271       .  A
C2235      C2663   1.500       .  S
O2236     Fe3163   1.971       .  S
O2237      C2240   1.265       .  A
O2238      C2240   1.266       .  A
C2240      C2270   1.476       .  S
O2241      C2246   1.268       .  A
O2242      C2244   1.265       .  A
C2243      O3181   1.276       .  A
C2243      C2363   1.507       .  S
C2244      O3168   1.280       .  A
C2244      C2290   1.495       .  S
O2245      C3179   1.276       .  A
C2246      C2320   1.464       .  S
Fe2247     O2263   2.045       .  S
Fe2247     O2253   2.074       .  S
Fe2247     O2260   2.064       .  S
Fe2247     O2252   2.057       .  S
Fe2247     O2258   1.957       .  S
Fe2248     O2251   2.064       .  S
Fe2248     O2255   2.071       .  S
Fe2248     O2259   2.073       .  S
Fe2248     O2264   2.058       .  S
Fe2248     O2258   1.980       .  S
Fe2249     O2267   2.110       .  S
Fe2249     O2254   2.111       .  S
Fe2249     O2261   2.128       .  S
Fe2249     O2250   2.126       .  S
Fe2249     O2258   1.985       .  S
O2250      C2257   1.275       .  A
O2251      C2265   1.266       .  A
O2252      C2257   1.264       .  A
O2253      C2256   1.275       .  A
O2254      C2266   1.284       .  A
O2255      C2268   1.268       .  A
C2256      O2261   1.284       .  A
C2256      C2313   1.511       .  S
C2257      C2283   1.503       .  S
O2259      C2262   1.268       .  A
O2260      C2262   1.268       .  A
C2262      C2273   1.492       .  S
O2263      C2268   1.268       .  A
O2264      C2266   1.271       .  A
C2265      O2267   1.274       .  A
C2265      C2573   1.510       .  S
C2266      C2700   1.484       .  S
C2268      C2333   1.481       .  S
C2269      C2270   1.401       .  A
C2269      C2274   1.413       .  A
C2269     Br2276   1.923       .  S
C2270      C2271   1.396       .  A
C2271      C2272   1.401       .  A
C2271     Br2278   1.918       .  S
C2272      C2273   1.415       .  A
C2272     Br2277   1.918       .  S
C2273      C2274   1.423       .  A
C2274     Br2275   1.930       .  S
C2279      C2280   1.412       .  A
C2279      C2284   1.419       .  A
C2279     Br2286   1.924       .  S
C2280      C2281   1.407       .  A
C2281      C2282   1.413       .  A
C2281     Br2288   1.920       .  S
C2282      C2283   1.410       .  A
C2282     Br2287   1.914       .  S
C2283      C2284   1.413       .  A
C2284     Br2285   1.923       .  S
C2289      C2290   1.416       .  A
C2289      C2294   1.420       .  A
C2289     Br2296   1.916       .  S
C2290      C2291   1.408       .  A
C2291      C2292   1.407       .  A
C2291     Br2298   1.927       .  S
C2292      C2293   1.412       .  A
C2292     Br2297   1.922       .  S
C2293      C2294   1.410       .  A
C2294     Br2295   1.924       .  S
C2299      C2300   1.422       .  A
C2299      C2304   1.412       .  A
C2299     Br2306   1.931   1_556  S
C2300      C2301   1.417       .  A
C2301      C2302   1.398       .  A
C2301     Br2308   1.925       .  S
C2302      C2303   1.400       .  A
C2302     Br2307   1.925       .  S
C2303      C2304   1.405       .  A
C2304     Br2305   1.923   1_556  S
C2309      C2310   1.412       .  A
C2309      C2314   1.398       .  A
C2309     Br2316   1.938       .  S
C2310      C2311   1.421       .  A
C2311      C2312   1.431       .  A
C2311     Br2318   1.926       .  S
C2312      C2313   1.417       .  A
C2312     Br2317   1.923       .  S
C2313      C2314   1.409       .  A
C2314     Br2315   1.915       .  S
C2319      C2320   1.404       .  A
C2319      C2324   1.404       .  A
C2319     Br2326   1.932       .  S
C2320      C2321   1.402       .  A
C2321      C2322   1.403       .  A
C2321     Br2328   1.921       .  S
C2322      C2323   1.415       .  A
C2322     Br2327   1.931       .  S
C2323      C2324   1.408       .  A
C2324     Br2325   1.909       .  S
C2329      C2330   1.412       .  A
C2329      C2334   1.417       .  A
C2329     Br2336   1.926       .  S
C2330      C2331   1.417       .  A
C2331      C2332   1.398       .  A
C2331     Br2338   1.933       .  S
C2332      C2333   1.409       .  A
C2332     Br2337   1.942       .  S
C2333      C2334   1.414       .  A
C2334     Br2335   1.929       .  S
C2339      C2340   1.409       .  A
C2339      C2344   1.414       .  A
C2339     Br2346   1.926       .  S
C2340      C2341   1.409       .  A
C2341      C2342   1.417       .  A
C2341     Br2348   1.917       .  S
C2342      C2343   1.411       .  A
C2342     Br2347   1.917   1_655  S
C2343      C2344   1.413       .  A
C2344     Br2345   1.926       .  S
C2349      C2350   1.412       .  A
C2349      C2354   1.411       .  A
C2349     Br2356   1.924       .  S
C2350      C2351   1.416       .  A
C2351      C2352   1.396       .  A
C2351     Br2358   1.943       .  S
C2352      C2353   1.409       .  A
C2352     Br2357   1.936       .  S
C2353      C2354   1.408       .  A
C2354     Br2355   1.928       .  S
C2359      C2360   1.415       .  A
C2359      C2364   1.423       .  A
C2359     Br2366   1.923       .  S
C2360      C2361   1.414       .  A
C2361      C2362   1.405       .  A
C2361     Br2368   1.943       .  S
C2362      C2363   1.421       .  A
C2362     Br2367   1.934       .  S
C2363      C2364   1.420       .  A
C2364     Br2365   1.930   1_545  S
C2369      C2370   1.407       .  A
C2369      C2374   1.407       .  A
C2369     Br2376   1.916   1_556  S
C2370      C2371   1.403       .  A
C2371      C2372   1.406       .  A
C2371     Br2378   1.918       .  S
C2372      C2373   1.409       .  A
C2372     Br2377   1.917       .  S
C2373      C2374   1.413       .  A
C2374     Br2375   1.933   1_556  S
C2379      C2380   1.408       .  A
C2379      C2384   1.414       .  A
C2379     Br2386   1.914       .  S
C2380      C2381   1.409       .  A
C2381      C2382   1.413       .  A
C2381     Br2388   1.912   1_655  S
C2382      C2383   1.407       .  A
C2382     Br2387   1.919       .  S
C2383      C2384   1.410       .  A
C2384     Br2385   1.925       .  S
C2389      C2390   1.410       .  A
C2389      C3330   1.416   1_546  A
C2389     Br2396   1.927   1_556  S
C2390      C2391   1.403   1_545  A
C2391      C3328   1.413       .  A
C2391     Br2398   1.926   1_565  S
C2392      C3327   1.411       .  A
C2392      C2393   1.427   1_556  A
C2392     Br2397   1.935       .  S
C2393      C2394   1.419       .  A
C2394      C3325   1.415   1_554  A
C2394     Br2395   1.926       .  S
C2399      C2400   1.409       .  A
C2399      C2404   1.407   1_554  A
C2399     Br2406   1.934       .  S
C2400      C2401   1.409       .  A
C2401      C2402   1.409   1_554  A
C2401     Br2408   1.921       .  S
C2402      C2403   1.409       .  A
C2402     Br2407   1.930       .  S
C2403      C2404   1.414       .  A
C2404     Br2405   1.930       .  S
C2409      C2410   1.423       .  A
C2409      C2414   1.426       .  A
C2409     Br2416   1.927       .  S
C2410      C2411   1.423       .  A
C2411      C2412   1.403       .  A
C2411     Br2418   1.947       .  S
C2412      C2413   1.417       .  A
C2412     Br2417   1.943       .  S
C2413      C2414   1.412       .  A
C2414     Br2415   1.926       .  S
C2419      C2420   1.409       .  A
C2419     Br2426   1.935       .  S
C2420      C2421   1.417   1_554  A
C2421     Br2428   1.936       .  S
C2422      C2423   1.421       .  A
C2422     Br2427   1.935   1_655  S
C2423      C2424   1.426   1_556  A
C2424     Br2425   1.942       .  S
C2429      C2430   1.403       .  A
C2429      C2434   1.400       .  A
C2429     Br2436   1.935       .  S
C2430      C2431   1.408       .  A
C2431      C2432   1.409   1_554  A
C2431     Br2438   1.930       .  S
C2432      C2433   1.411       .  A
C2432     Br2437   1.927       .  S
C2433      C2434   1.415   1_556  A
C2434     Br2435   1.929   1_554  S
C2439      C2440   1.409       .  A
C2439      C2444   1.401       .  A
C2439     Br2446   1.924       .  S
C2440      C2441   1.412       .  A
C2441      C2442   1.415       .  A
C2441     Br2448   1.929   1_554  S
C2442      C2443   1.418       .  A
C2442     Br2447   1.929   1_554  S
C2443      C2444   1.412       .  A
C2444     Br2445   1.935       .  S
C2449      C2450   1.412       .  A
C2449      C2454   1.423       .  A
C2449     Br2456   1.928       .  S
C2450      C2451   1.406       .  A
C2451      C2452   1.405       .  A
C2451     Br2458   1.942       .  S
C2452      C2453   1.429       .  A
C2452     Br2457   1.942       .  S
C2453      C2454   1.422       .  A
C2454     Br2455   1.928       .  S
C2459      C2460   1.409       .  A
C2459      C2464   1.402       .  A
C2459     Br2466   1.920       .  S
C2460      C2461   1.409       .  A
C2461      C2462   1.414       .  A
C2461     Br2468   1.923       .  S
C2462      C2463   1.422       .  A
C2462     Br2467   1.931       .  S
C2463      C2464   1.410       .  A
C2464     Br2465   1.927       .  S
C2469      C2470   1.409       .  A
C2469      C2474   1.404       .  A
C2469     Br2476   1.919       .  S
C2470      C2471   1.412       .  A
C2471      C2472   1.411       .  A
C2471     Br2478   1.927       .  S
C2472      C2473   1.407       .  A
C2472     Br2477   1.919       .  S
C2473      C2474   1.404       .  A
C2479      C2484   1.407       .  A
C2479     Br2486   1.933       .  S
C2480      C2481   1.419   1_556  A
C2481     Br2488   1.933       .  S
C2482      C2483   1.410       .  A
C2482     Br2487   1.930       .  S
C2483      C2484   1.419   1_554  A
C2484     Br2485   1.937       .  S
C2489      C2490   1.405       .  A
C2489      C3430   1.414   1_545  A
C2489     Br2496   1.932       .  S
C2490      C2491   1.411   1_556  A
C2491      C3428   1.416   1_545  A
C2491     Br2498   1.927       .  S
C2492      C3427   1.415       .  A
C2492      C2493   1.416       .  A
C2492     Br2497   1.931       .  S
C2493      C2494   1.422   1_554  A
C2494      C3425   1.411       .  A
C2494     Br2495   1.927       .  S
C2499      C2500   1.409       .  A
C2499      C2504   1.409       .  A
C2499     Br2506   1.926       .  S
C2500      C2501   1.408       .  A
C2501      C2502   1.397       .  A
C2501     Br2508   1.916       .  S
C2502      C2503   1.402       .  A
C2502     Br2507   1.925   1_554  S
C2503      C2504   1.405       .  A
C2504     Br2505   1.919       .  S
C2509      C2510   1.409       .  A
C2509      C2514   1.408       .  A
C2509     Br2516   1.928       .  S
C2510      C2511   1.413       .  A
C2511      C2512   1.422       .  A
C2511     Br2518   1.925       .  S
C2512      C2513   1.416       .  A
C2512     Br2517   1.923       .  S
C2513      C2514   1.416       .  A
C2519      C2520   1.400   1_556  A
C2519      C2524   1.411       .  A
C2519     Br2526   1.927       .  S
C2520      C2521   1.395       .  A
C2521      C2522   1.399       .  A
C2521     Br2528   1.929       .  S
C2522      C2523   1.419       .  A
C2522     Br2527   1.921       .  S
C2523      C2524   1.424   1_554  A
C2524     Br2525   1.930       .  S
C2529      C2530   1.409       .  A
C2529      C2534   1.409       .  A
C2529     Br2536   1.925       .  S
C2530      C2531   1.404       .  A
C2531      C2532   1.408       .  A
C2531     Br2538   1.919       .  S
C2532      C2533   1.415       .  A
C2532     Br2537   1.932       .  S
C2533      C2534   1.405       .  A
C2534     Br2535   1.920       .  S
C2539      C2540   1.410       .  A
C2539      C2544   1.410       .  A
C2539     Br2546   1.930       .  S
C2540      C2541   1.403       .  A
C2541      C2542   1.412       .  A
C2541     Br2548   1.919       .  S
C2542      C2543   1.418       .  A
C2542     Br2547   1.929       .  S
C2543      C2544   1.412       .  A
C2544     Br2545   1.923       .  S
C2549      C2550   1.414       .  A
C2549      C2554   1.395       .  A
C2549     Br2556   1.942       .  S
C2550      C2551   1.414       .  A
C2551      C2552   1.412       .  A
C2551     Br2558   1.921       .  S
C2552      C2553   1.408       .  A
C2552     Br2557   1.927       .  S
C2553      C2554   1.410       .  A
C2554     Br2555   1.932       .  S
C2559      C2560   1.412       .  A
C2559      C2564   1.421       .  A
C2559     Br3502   1.926       .  S
C2560      C2561   1.409       .  A
C2561      C2562   1.407       .  A
C2561     Br2568   1.947       .  S
C2562      C2563   1.439       .  A
C2562     Br2567   1.951       .  S
C2563      C2564   1.425       .  A
C2564     Br2565   1.932       .  S
Br2566     C3495   1.927       .  S
C2569      C2570   1.426       .  A
C2569      C2574   1.419       .  A
C2569     Br2576   1.937       .  S
C2570      C2571   1.425       .  A
C2571      C2572   1.421       .  A
C2571     Br2578   1.930       .  S
C2572      C2573   1.412       .  A
C2572     Br2577   1.933       .  S
C2573      C2574   1.418       .  A
C2574     Br2575   1.938       .  S
C2579      C2580   1.417       .  A
C2579      C2584   1.416       .  A
C2579     Br2586   1.928       .  S
C2580      C2581   1.416       .  A
C2581      C2582   1.411       .  A
C2581     Br2588   1.934       .  S
C2582      C2583   1.418       .  A
C2582     Br2587   1.934       .  S
C2583      C2584   1.415       .  A
C2584     Br3521   1.933       .  S
Br2585     C3520   1.933       .  S
C2589      C2590   1.419       .  A
C2589      C2594   1.412       .  A
C2589     Br2596   1.936       .  S
C2590      C2591   1.414       .  A
C2591      C2592   1.417       .  A
C2591     Br2598   1.933       .  S
C2592      C2593   1.423       .  A
C2592     Br2597   1.936       .  S
C2593      C2594   1.417       .  A
C2594     Br2595   1.937       .  S
C2599      C2600   1.420       .  A
C2599      C2604   1.409       .  A
C2600      C2601   1.424       .  A
C2601      C2602   1.416       .  A
C2601     Br2608   1.931       .  S
C2602      C2603   1.407       .  A
C2602     Br2607   1.932   1_655  S
C2603      C2604   1.405       .  A
C2609      C2610   1.411       .  A
C2609      C2614   1.413       .  A
C2609     Br2616   1.929       .  S
C2610      C2611   1.410       .  A
C2611      C2612   1.412       .  A
C2611     Br2618   1.920       .  S
C2612      C2613   1.413       .  A
C2612     Br2617   1.933       .  S
C2613      C2614   1.409       .  A
C2614     Br2615   1.919       .  S
C2619      C2620   1.409       .  A
C2619      C2624   1.417       .  A
C2619     Br2626   1.929       .  S
C2620      C2621   1.407       .  A
C2621      C2622   1.406       .  A
C2621     Br2628   1.914       .  S
C2622      C2623   1.417       .  A
C2622     Br2627   1.939       .  S
C2623      C2624   1.420       .  A
C2624     Br2625   1.925       .  S
C2629      C2630   1.420       .  A
C2629      C2634   1.407   1_545  A
C2629     Br2636   1.934   1_545  S
C2630      C2631   1.419       .  A
C2631      C2632   1.408       .  A
C2631     Br2638   1.929       .  S
C2632      C2633   1.404       .  A
C2632     Br2637   1.931       .  S
C2633      C2634   1.402   1_545  A
C2634     Br3571   1.926       .  S
Br2635     C3570   1.925       .  S
C2639      C2640   1.418       .  A
C2639      C2644   1.414       .  A
C2639     Br3582   1.932       .  S
C2640      C2890   1.494       .  S
C2640      C2641   1.413       .  A
C2641      C2642   1.403       .  A
C2641     Br2648   1.930       .  S
C2642      C2643   1.413       .  A
C2642     Br2647   1.932       .  S
C2643      C2644   1.415       .  A
Br2646     C3575   1.933       .  S
C2649      C2650   1.426       .  A
C2649      C2654   1.412       .  A
C2650      C2651   1.427       .  A
C2651      C2652   1.413       .  A
C2651     Br2658   1.932       .  S
C2652      C2653   1.404       .  A
C2652     Br2657   1.934       .  S
C2653      C2654   1.409       .  A
C2659      C2660   1.425       .  A
C2659      C2664   1.416       .  A
C2659     Br2666   1.932       .  S
C2660      C2661   1.414       .  A
C2661      C2662   1.405       .  A
C2661     Br2668   1.937       .  S
C2662      C2663   1.414       .  A
C2662     Br3603   1.925       .  S
C2663      C2664   1.411       .  A
C2664     Br2665   1.928       .  S
Br2667     C3598   1.923       .  S
C2669      C2670   1.418       .  A
C2669      C2674   1.402       .  A
C2669     Br2676   1.940       .  S
C2670      C2671   1.420       .  A
C2671      C2672   1.414       .  A
C2672      C2673   1.413       .  A
C2672     Br2677   1.933       .  S
C2673      C2674   1.415       .  A
C2674     Br2675   1.933       .  S
C2679      C2680   1.409       .  A
C2679      C3620   1.412       .  A
C2679     Br2686   1.930       .  S
C2680      C2681   1.410       .  A
C2681      C3618   1.417       .  A
C2681     Br2688   1.917       .  S
C2682      C3617   1.420       .  A
C2682      C2683   1.412   1_565  A
C2682     Br2687   1.927       .  S
C2683      C2684   1.410       .  A
C2684      C3615   1.414       .  A
C2684     Br2685   1.912       .  S
C2689      C2694   1.411       .  A
C2689     Br2696   1.929       .  S
C2690      C2691   1.407       .  A
C2691      C2692   1.412       .  A
C2691     Br2698   1.916       .  S
C2692     Br2697   1.929       .  S
C2693      C2694   1.406       .  A
C2694     Br2695   1.917       .  S
C2699      C2700   1.409       .  A
C2699      C2704   1.408       .  A
C2699     Br2706   1.925       .  S
C2700      C2701   1.407       .  A
C2701      C2702   1.416       .  A
C2701     Br2708   1.929       .  S
C2702      C2703   1.422       .  A
C2702     Br2707   1.929       .  S
C2703      C2704   1.418       .  A
C2704     Br2705   1.938       .  S
C2709      C2710   1.408       .  A
C2709      C2714   1.415       .  A
C2709     Br2716   1.930       .  S
C2710      C2711   1.410       .  A
C2711      C2712   1.410       .  A
C2712      C2713   1.419       .  A
C2712     Br2717   1.937       .  S
C2713      C2714   1.419       .  A
C2714     Br2715   1.928       .  S
C2719      C2720   1.421       .  A
C2719      C2724   1.416       .  A
C2720      C2721   1.422       .  A
C2721      C2722   1.410       .  A
C2721     Br2728   1.945       .  S
C2722      C2723   1.425       .  A
C2722     Br2727   1.944       .  S
C2723      C2940   1.509   1_545  S
C2723      C2724   1.418       .  A
C2724     Br3661   1.935       .  S
Br2725     C3660   1.934       .  S
C2729      C2730   1.421       .  A
C2729      C2734   1.419       .  A
C2729     Br2736   1.936       .  S
C2730      C2731   1.414       .  A
C2731      C2732   1.406       .  A
C2731     Br2738   1.941       .  S
C2732      C2733   1.426       .  A
C2732     Br2737   1.940       .  S
C2733      C2874   1.508   1_545  S
C2733      C2734   1.422       .  A
C2734     Br3671   1.936       .  S
Br2735     C3670   1.934       .  S
C2739      C2740   1.403       .  A
C2739      C2744   1.410       .  A
C2739     Br2746   1.911       .  S
C2740      C2741   1.407       .  A
C2741      C2742   1.415       .  A
C2741     Br2748   1.929       .  S
C2742      C2743   1.410       .  A
C2742     Br2747   1.917       .  S
C2743      C2744   1.409       .  A
C2744     Br2745   1.927       .  S
C2749      C2750   1.413       .  A
C2749      C2754   1.416       .  A
C2749     Br2756   1.929       .  S
C2750      C2751   1.407       .  A
C2751      C2752   1.406       .  A
C2752      C2753   1.414       .  A
C2753      C2754   1.411       .  A
C2754     Br2755   1.923       .  S
C2759      C2760   1.414       .  A
C2759      C2764   1.406       .  A
C2759     Br2766   1.935       .  S
C2760      C2761   1.416       .  A
C2761      C2762   1.409       .  A
C2761     Br2768   1.935       .  S
C2762      C2763   1.411       .  A
C2762     Br2767   1.931       .  S
C2763      C2764   1.413       .  A
C2764     Br2765   1.935       .  S
C2769      C2770   1.412       .  A
C2769      C2774   1.417       .  A
C2769     Br2776   1.927       .  S
C2770      C2824   1.483       .  S
C2770      C2771   1.413       .  A
C2771      C2772   1.402       .  A
C2771     Br3714   1.935       .  S
C2772      C2773   1.411       .  A
C2772     Br2777   1.934       .  S
C2773      C2774   1.412       .  A
C2774     Br2775   1.927       .  S
Br2778     C3707   1.936   1_545  S
C2779      C2780   1.411   1_455  A
C2779     Br2786   1.926       .  S
C2780      C2781   1.405       .  A
C2781     Br2788   1.920       .  S
C2782      C2783   1.410       .  A
C2782     Br2787   1.926       .  S
C2783      C2784   1.407       .  A
C2784     Br2785   1.916       .  S
C2789      C2790   1.405       .  A
C2789      C3730   1.414   1_545  A
C2789     Br2796   1.921       .  S
C2790      C3727   1.412   1_545  A
C2791      C3726   1.411       .  A
C2791      C2792   1.412       .  A
C2791     Br3734   1.928       .  S
C2792      C2793   1.409       .  A
C2792     Br2797   1.922       .  S
C2793      C2794   1.415       .  A
C2794      C3725   1.414       .  A
C2794     Br2795   1.928       .  S
Br2798     C3727   1.927       .  S
C2799      C2800   1.417       .  A
C2799      C2804   1.402       .  A
C2799     Br2806   1.928       .  S
C2800      C2801   1.420       .  A
C2801      C2802   1.417       .  A
C2801     Br2808   1.931       .  S
C2802      C2803   1.414       .  A
C2802     Br2807   1.932       .  S
C2803      C2804   1.409       .  A
C2804     Br2805   1.932       .  S
Fe2809     O2825   2.069       .  S
Fe2809     O2815   2.038       .  S
Fe2809     O2822   2.047       .  S
Fe2809     O2814   2.075       .  S
Fe2809     O2820   1.941       .  S
Fe2810     O2813   2.097       .  S
Fe2810     O2817   2.067       .  S
Fe2810     O2821   2.108       .  S
Fe2810     O2826   2.059       .  S
Fe2810     O2820   1.952       .  S
Fe2811     O2829   2.071       .  S
Fe2811     O2816   2.075       .  S
Fe2811     O2823   2.115       .  S
Fe2811     O2812   2.090       .  S
Fe2811     O2820   1.958       .  S
O2812      C2819   1.271       .  A
O2813      C2827   1.277       .  A
O2814      C2819   1.269       .  A
O2815      C2818   1.265       .  A
O2816      C2828   1.270       .  A
O2817      C2830   1.268       .  A
C2818      O2823   1.276       .  A
C2818      C3716   1.482       .  S
C2819      C3726   1.487       .  S
O2821      C2824   1.277       .  A
O2822      C2824   1.266       .  A
O2825      C2830   1.269       .  A
O2826      C2828   1.270       .  A
C2827      O2829   1.274       .  A
C2827      C3686   1.488       .  S
C2828      C3696   1.482       .  S
Fe2831     O2847   2.085       .  S
Fe2831     O2837   2.076       .  S
Fe2831     O2844   2.095       .  S
Fe2831     O2836   2.060       .  S
Fe2831     O2842   1.976       .  S
Fe2832     O2835   2.047       .  S
Fe2832     O2839   2.054       .  S
Fe2832     O2843   2.041       .  S
Fe2832     O2848   2.061       .  S
Fe2832     O2842   1.973       .  S
Fe2833     O2851   2.113       .  S
Fe2833     O2838   2.090       .  S
Fe2833     O2845   2.078       .  S
Fe2833     O2834   2.098       .  S
Fe2833     O2842   1.989       .  S
O2834      C2841   1.276       .  A
O2835      C2849   1.265       .  A
O2836      C2841   1.268       .  A
O2837      C2840   1.273       .  A
O2838      C2850   1.271       .  A
O2839      C2852   1.267       .  A
C2840      O2845   1.271       .  A
C2840      C3639   1.501       .  S
C2841      C3649   1.498       .  S
O2843      C2846   1.264       .  A
O2844      C2846   1.272       .  A
O2847      C2852   1.271       .  A
O2848      C2850   1.267       .  A
C2849      O2851   1.276       .  A
C2849      C3679   1.486       .  S
C2850      C3719   1.482       .  S
C2852      C3666   1.498       .  S
Fe2853     O2869   2.030       .  S
Fe2853     O2859   2.074       .  S
Fe2853     O2866   2.044       .  S
Fe2853     O2858   2.046       .  S
Fe2853     O2864   1.962       .  S
Fe2854     O2857   2.058       .  S
Fe2854     O2861   2.102       .  S
Fe2854     O2865   2.084       .  S
Fe2854     O2870   2.090       .  S
Fe2854     O2864   1.979       .  S
Fe2855     O2873   2.069       .  S
Fe2855     O2860   2.079       .  S
Fe2855     O2867   2.112       .  S
Fe2855     O2856   2.093       .  S
Fe2855     O2864   1.978       .  S
O2856      C2863   1.268       .  A
O2857      C2871   1.267       .  A
O2858      C2863   1.262       .  A
O2859      C2862   1.272       .  A
O2860      C2872   1.276       .  A
O2861      C2874   1.274       .  A
C2862      O2867   1.278       .  A
C2862      C3616   1.496       .  S
C2863      C3626   1.480       .  S
O2865      C2868   1.270       .  A
O2866      C2868   1.269       .  A
O2869      C2874   1.259       .  A
O2870      C2872   1.273       .  A
C2871      O2873   1.269       .  A
C2871      C3596   1.483       .  S
C2872      C3586   1.512       .  S
Fe2875     O2891   2.076       .  S
Fe2875     O2881   2.051       .  S
Fe2875     O2888   2.076       .  S
Fe2875     O2880   2.057       .  S
Fe2875     O2886   1.986       .  S
Fe2876     O2879   2.072       .  S
Fe2876     O2883   2.047       .  S
Fe2876     O2887   2.057       .  S
Fe2876     O2892   2.064       .  S
Fe2876     O2886   1.971       .  S
Fe2877     O2895   2.100       .  S
Fe2877     O2882   2.106       .  S
Fe2877     O2889   2.094       .  S
Fe2877     O2878   2.075       .  S
Fe2877     O2886   1.986       .  S
O2878      C2885   1.271       .  A
O2879      C2893   1.270       .  A
O2880      C2885   1.265       .  A
O2881      C2884   1.267       .  A
O2882      C2894   1.273       .  A
O2883      C2896   1.266       .  A
C2884      O2889   1.275       .  A
C2884      C3559   1.491       .  S
C2885      C3566   1.497       .  S
O2887      C2890   1.269       .  A
O2888      C2890   1.269       .  A
O2891      C2896   1.268       .  A
O2892      C2894   1.267       .  A
C2893      O2895   1.273       .  A
C2893      C3676   1.491       .  S
C2894      C3619   1.493       .  S
C2896      C3736   1.493       .  S
Fe2897     O2913   2.071       .  S
Fe2897     O2903   2.098       .  S
Fe2897     O2910   2.103       .  S
Fe2897     O2902   2.070       .  S
Fe2897     O2908   1.957       .  S
Fe2898     O2901   2.042       .  S
Fe2898     O2905   2.061       .  S
Fe2898     O2909   2.051       .  S
Fe2898     O2914   2.072       .  S
Fe2898     O2908   1.942       .  S
Fe2899     O2917   2.127       .  S
Fe2899     O2904   2.094       .  S
Fe2899     O2911   2.062       .  S
Fe2899     O2900   2.112       .  S
Fe2899     O2908   1.943       .  S
O2900      C2907   1.280       .  A
O2901      C2915   1.264       .  A
O2902      C2907   1.272       .  A
O2903      C2906   1.273       .  A
O2904      C2916   1.274       .  A
O2905      C2918   1.267       .  A
C2906      O2911   1.270       .  A
C2906      C3536   1.504       .  S
C2907      C3529   1.509       .  S
O2909      C2912   1.267       .  A
O2910      C2912   1.276       .  A
C2912      C3709   1.481       .  S
O2913      C2918   1.270       .  A
O2914      C2916   1.269       .  A
C2915      O2917   1.278       .  A
C2915      C3629   1.492       .  S
C2916      C3546   1.486       .  S
Fe2919     O2935   2.104       .  S
Fe2919     O2925   2.081       .  S
Fe2919     O2932   2.087       .  S
Fe2919     O2924   2.097       .  S
Fe2919     O2930   1.974       .  S
Fe2920     O2923   2.042       .  S
Fe2920     O2927   2.031       .  S
Fe2920     O2931   2.033       .  S
Fe2920     O2936   2.036       .  S
Fe2920     O2930   1.978       .  S
Fe2921     O2939   2.118       .  S
Fe2921     O2926   2.116       .  S
Fe2921     O2933   2.083       .  S
Fe2921     O2922   2.097       .  S
Fe2921     O2930   1.984       .  S
O2922      C2929   1.276       .  A
O2923      C2937   1.261       .  A
O2924      C2929   1.275       .  A
O2925      C2928   1.272       .  A
O2926      C2938   1.276       .  A
O2927      C2940   1.261       .  A
C2928      O2933   1.271       .  A
C2928      C3516   1.507       .  S
C2929      C3506   1.525       .  S
O2931      C2934   1.259       .  A
O2932      C2934   1.272       .  A
C2934      C3609   1.495       .  S
O2935      C2940   1.276       .  A
O2936      C2938   1.263       .  A
C2937      O2939   1.277       .  A
C2937      C3729   1.490       .  S
C2938      C3549   1.484       .  S
Fe2941     O2957   2.070       .  S
Fe2941     O2947   2.041       .  S
Fe2941     O2954   2.072       .  S
Fe2941     O2946   2.055       .  S
Fe2941     O2952   1.981       .  S
Fe2942     O2945   2.061       .  S
Fe2942     O2949   2.065       .  S
Fe2942     O2953   2.043       .  S
Fe2942     O2958   2.054       .  S
Fe2942     O2952   1.947       .  S
Fe2943     O2955   2.085       .  S
Fe2943     O2944   2.075       .  S
O2944      C2951   1.266       .  A
O2945      C2959   1.264       .  A
O2948      C2960   1.279       .  A
O2949      C2962   1.271       .  A
C2950      O2955   1.278       .  A
C2950      C3699   1.486       .  S
C2951      C3569   1.477       .  S
O2953      C2956   1.265       .  A
O2954      C2956   1.267       .  A
C2956      C3486   1.484       .  S
O2957      C2962   1.267       .  A
O2958      C2960   1.271       .  A
C2959      O2961   1.267       .  A
C2959      C3479   1.483       .  S
C2960      C3496   1.498       .  S
C2962      C3469   1.486       .  S
Fe2963     O2979   2.067       .  S
Fe2963     O2969   2.027       .  S
Fe2963     O2976   2.045       .  S
Fe2963     O2968   2.109       .  S
Fe2963     O2974   1.915       .  S
Fe2964     O2967   2.090       .  S
Fe2964     O2971   2.055       .  S
Fe2964     O2975   2.095       .  S
Fe2964     O2980   2.034       .  S
Fe2964     O2974   1.947       .  S
Fe2965     O2983   2.101       .  S
Fe2965     O2970   2.122       .  S
Fe2965     O2977   2.148       .  S
Fe2965     O2966   2.103       .  S
Fe2965     O2974   1.954       .  S
O2966      C2973   1.279       .  A
O2967      C2981   1.275       .  A
O2968      C2973   1.280       .  A
O2969      C2972   1.251       .  A
O2970      C2982   1.281       .  A
O2971      C2984   1.262       .  A
C2972      O2977   1.278       .  A
C2972      C3499   1.501       .  S
C2973      C3446   1.506       .  S
O2975      C2978   1.275       .  A
O2976      C2978   1.267       .  A
C2978      C3436   1.468       .  S
O2979      C2984   1.268       .  A
O2980      C2982   1.266       .  A
C2981      O2983   1.282       .  A
C2981      C3429   1.506       .  S
C2982      C3419   1.485       .  S
C2984      C3456   1.469       .  S
Fe2985     O3001   2.075       .  S
Fe2985     O2991   2.063       .  S
Fe2985     O2998   2.076       .  S
Fe2985     O2990   2.057       .  S
Fe2985     O2996   1.990       .  S
Fe2986     O2989   2.060       .  S
Fe2986     O2993   2.043       .  S
Fe2986     O2997   2.051       .  S
Fe2986     O3002   2.046       .  S
Fe2986     O2996   1.961       .  S
Fe2987     O2992   2.092   1_655  S
Fe2987     O2999   2.081       .  S
Fe2987     O2988   2.104       .  S
O2988      C2995   1.279       .  A
O2989      C3003   1.269       .  A
O2993      C3006   1.266       .  A
C2994      O2999   1.269       .  A
C2994      C3539   1.480       .  S
C2995      C3689   1.493       .  S
O2997      C3000   1.267       .  A
O2998      C3000   1.268       .  A
C3000      C3399   1.491       .  S
O3001      C3006   1.269       .  A
O3002      C3004   1.262       .  A
C3003      O3005   1.281       .  A
C3003      C3449   1.509       .  S
C3004      C3409   1.478       .  S
C3006      C3489   1.473       .  S
Fe3007     O3023   2.065       .  S
Fe3007     O3013   2.046       .  S
Fe3007     O3020   2.077       .  S
Fe3007     O3012   2.041       .  S
Fe3007     O3018   1.965       .  S
Fe3008     O3011   2.031       .  S
Fe3008     O3015   2.073       .  S
Fe3008     O3019   2.046       .  S
Fe3008     O3024   2.041       .  S
Fe3008     O3018   1.929       .  S
Fe3009     O3027   2.114       .  S
Fe3009     O3014   2.084       .  S
Fe3009     O3021   2.068       .  S
Fe3009     O3010   2.103       .  S
Fe3009     O3018   1.960       .  S
O3010      C3017   1.282       .  A
O3011      C3025   1.265       .  A
O3012      C3017   1.271       .  A
O3013      C3016   1.261       .  A
O3014      C3026   1.271       .  A
O3015      C3028   1.274       .  A
C3016      O3021   1.267       .  A
C3016      C3366   1.461       .  S
C3017      C3356   1.476       .  S
O3019      C3022   1.259       .  A
O3020      C3022   1.264       .  A
C3022      C3439   1.465       .  S
O3023      C3028   1.271       .  A
O3024      C3026   1.265       .  A
C3025      O3027   1.278       .  A
C3025      C3386   1.485       .  S
C3026      C3406   1.479       .  S
C3028      C3376   1.478       .  S
Fe3029     O3045   2.073       .  S
Fe3029     O3035   2.056       .  S
Fe3029     O3042   2.063       .  S
Fe3029     O3034   2.031       .  S
Fe3029     O3040   1.994       .  S
Fe3030     O3033   2.067       .  S
Fe3030     O3037   2.064       .  S
Fe3030     O3041   2.064       .  S
Fe3030     O3046   2.056       .  S
Fe3030     O3040   1.959       .  S
Fe3031     O3049   2.078       .  S
Fe3031     O3036   2.126       .  S
Fe3031     O3043   2.111       .  S
Fe3031     O3032   2.086       .  S
Fe3031     O3040   1.984       .  S
O3032      C3039   1.269       .  A
O3033      C3047   1.269       .  A
O3034      C3039   1.259       .  A
O3035      C3038   1.269       .  A
O3036      C3048   1.282       .  A
O3037      C3050   1.269       .  A
C3038      O3043   1.282       .  A
C3038      C3329   1.511       .  S
C3039      C3336   1.471       .  S
O3041      C3044   1.270       .  A
O3042      C3044   1.266       .  A
C3044      C3379   1.482       .  S
O3045      C3050   1.266       .  A
O3046      C3048   1.271       .  A
C3047      O3049   1.268       .  A
C3047      C3476   1.497       .  S
C3048      C3349   1.506       .  S
C3050      C3459   1.481       .  S
Fe3051     O3067   2.044       .  S
Fe3051     O3057   2.043       .  S
Fe3051     O3064   2.059       .  S
Fe3051     O3056   2.076       .  S
Fe3051     O3062   1.927       .  S
Fe3052     O3055   2.070       .  S
Fe3052     O3059   2.071       .  S
Fe3052     O3063   2.108       .  S
Fe3052     O3068   2.043       .  S
Fe3052     O3062   1.951       .  S
Fe3053     O3071   2.105       .  S
Fe3053     O3058   2.107       .  S
Fe3053     O3065   2.154       .  S
Fe3053     O3054   2.101       .  S
Fe3053     O3062   1.962       .  S
O3054      C3061   1.275       .  A
O3055      C3069   1.275       .  A
O3056      C3061   1.265       .  A
O3057      C3060   1.258       .  A
O3058      C3070   1.276       .  A
O3059      C3072   1.262       .  A
C3060      O3065   1.282       .  A
C3060      C3346   1.516       .  S
C3061      C3389   1.508       .  S
O3063      C3066   1.280       .  A
O3064      C3066   1.275       .  A
C3066      C3396   1.492       .  S
O3067      C3072   1.260       .  A
O3068      C3070   1.265       .  A
C3069      O3071   1.285       .  A
C3069      C3526   1.504       .  S
C3070      C3556   1.489       .  S
C3072      C3466   1.469       .  S
Fe3073     O3089   2.065       .  S
Fe3073     O3079   2.042       .  S
Fe3073     O3086   2.033       .  S
Fe3073     O3078   2.044       .  S
Fe3073     O3084   1.956       .  S
Fe3074     O3077   2.058       .  S
Fe3074     O3081   2.070       .  S
Fe3074     O3085   2.083       .  S
Fe3074     O3090   2.066       .  S
Fe3074     O3084   1.985       .  S
Fe3075     O3093   2.092       .  S
Fe3075     O3080   2.084       .  S
Fe3075     O3087   2.112       .  S
Fe3075     O3076   2.108       .  S
Fe3075     O3084   1.994       .  S
O3076      C3083   1.276       .  A
O3077      C3091   1.272       .  A
O3078      C3083   1.268       .  A
O3079      C3082   1.263       .  A
O3080      C3092   1.269       .  A
O3081      C3094   1.265       .  A
C3082      O3087   1.274       .  A
C3082      C3319   1.490       .  S
C3083      C3296   1.493       .  S
O3085      C3088   1.273       .  A
O3086      C3088   1.264       .  A
C3088      C3286   1.484       .  S
O3089      C3094   1.266       .  A
O3090      C3092   1.266       .  A
C3091      O3093   1.280       .  A
C3091      C3359   1.493       .  S
C3092      C3326   1.486       .  S
C3094      C3309   1.483       .  S
Fe3095     O3111   2.092       .  S
Fe3095     O3101   2.057       .  S
Fe3095     O3108   2.056       .  S
Fe3095     O3100   2.075       .  S
Fe3095     O3106   1.981       .  S
Fe3096     O3099   2.085       .  S
Fe3096     O3103   2.046       .  S
Fe3096     O3107   2.082       .  S
Fe3096     O3112   2.058       .  S
Fe3096     O3106   1.959       .  S
Fe3097     O3115   2.107       .  S
Fe3097     O3102   2.120       .  S
Fe3097     O3109   2.101       .  S
Fe3097     O3098   2.090       .  S
O3098      C3105   1.277       .  A
O3099      C3113   1.273       .  A
O3103      C3116   1.266       .  A
C3104      O3109   1.274       .  A
C3104      C3589   1.487       .  S
C3105      C3646   1.491       .  S
O3107      C3110   1.271       .  A
O3108      C3110   1.265       .  A
C3110      C3259   1.482       .  S
O3111      C3116   1.274       .  A
O3112      C3114   1.265       .  A
C3113      C3279   1.499       .  S
C3114      C3316   1.497       .  S
C3116      C3266   1.482       .  S
Fe3117     O3133   2.072       .  S
Fe3117     O3123   2.038       .  S
Fe3117     O3130   2.055       .  S
Fe3117     O3122   2.060       .  S
Fe3117     O3128   1.978       .  S
Fe3118     O3121   2.076       .  S
Fe3118     O3125   2.059       .  S
Fe3118     O3129   2.081       .  S
Fe3118     O3134   2.049       .  S
Fe3118     O3128   1.951       .  S
Fe3119     O3137   2.106       .  S
Fe3119     O3124   2.106       .  S
Fe3119     O3131   2.107       .  S
Fe3119     O3120   2.076       .  S
Fe3119     O3128   1.979       .  S
O3120      C3127   1.270       .  A
O3121      C3135   1.272       .  A
O3122      C3127   1.266       .  A
O3123      C3126   1.265       .  A
O3124      C3136   1.274       .  A
O3125      C3138   1.265       .  A
C3126      O3131   1.280       .  A
C3126      C3416   1.492       .  S
C3127      C3339   1.481       .  S
O3129      C3132   1.276       .  A
O3130      C3132   1.266       .  A
C3132      C3239   1.479       .  S
O3133      C3138   1.265       .  A
O3134      C3136   1.266       .  A
C3135      O3137   1.277       .  A
C3135      C3276   1.493       .  S
C3136      C3246   1.491       .  S
C3138      C3306   1.477       .  S
Fe3139     O3155   2.080       .  S
Fe3139     O3145   2.056       .  S
Fe3139     O3152   2.072       .  S
Fe3139     O3144   2.067       .  S
Fe3139     O3150   1.984       .  S
Fe3140     O3143   2.052       .  S
Fe3140     O3147   2.030       .  S
Fe3140     O3151   2.035       .  S
Fe3140     O3156   2.054       .  S
Fe3140     O3150   1.956       .  S
Fe3141     O3159   2.131       .  S
Fe3141     O3146   2.103       .  S
Fe3141     O3153   2.080       .  S
Fe3141     O3142   2.097       .  S
Fe3141     O3150   1.979       .  S
O3142      C3149   1.275       .  A
O3143      C3157   1.264       .  A
O3144      C3149   1.269       .  A
O3145      C3148   1.269       .  A
O3146      C3158   1.275       .  A
O3147      C3160   1.261       .  A
C3148      O3153   1.275       .  A
C3148      C3369   1.478       .  S
C3149      C3426   1.486       .  S
O3151      C3154   1.265       .  A
O3152      C3154   1.269       .  A
C3154      C3289   1.468       .  S
O3155      C3160   1.269       .  A
O3156      C3158   1.266       .  A
C3157      O3159   1.279       .  A
C3157      C3216   1.502       .  S
C3158      C3229   1.491       .  S
C3160      C3236   1.488       .  S
Fe3161     O3177   2.074       .  S
Fe3161     O3167   2.059       .  S
Fe3161     O3174   2.074       .  S
Fe3161     O3166   2.061       .  S
Fe3161     O3172   1.974       .  S
Fe3162     O3165   2.066       .  S
Fe3162     O3169   2.051       .  S
Fe3162     O3173   2.038       .  S
Fe3162     O3178   2.058       .  S
Fe3162     O3172   1.951       .  S
Fe3163     O3181   2.099       .  S
Fe3163     O3168   2.132       .  S
Fe3163     O3175   2.105   1_545  S
Fe3163     O3164   2.093   1_545  S
O3164      C3171   1.279       .  A
O3165      C3179   1.268       .  A
O3169      C3182   1.267       .  A
C3170      O3175   1.274   1_545  A
C3170      C3519   1.506   1_545  S
C3171      C3599   1.498       .  S
O3173      C3176   1.264       .  A
O3174      C3176   1.266       .  A
C3176      C3206   1.472       .  S
O3177      C3182   1.268       .  A
O3178      C3180   1.265       .  A
C3179      C3299   1.503       .  S
C3180      C3226   1.493       .  S
C3182      C3256   1.469       .  S
Fe3183     O3199   2.039       .  S
Fe3183     O3189   2.071       .  S
Fe3183     O3196   2.051       .  S
Fe3183     O3188   2.055       .  S
Fe3183     O3194   1.955       .  S
Fe3184     O3187   2.061       .  S
Fe3184     O3191   2.074       .  S
Fe3184     O3195   2.071       .  S
Fe3184     O3200   2.062       .  S
Fe3184     O3194   1.980       .  S
Fe3185     O3203   2.118       .  S
Fe3185     O3190   2.104       .  S
Fe3185     O3197   2.117       .  S
Fe3185     O3186   2.136       .  S
Fe3185     O3194   1.982       .  S
O3186      C3193   1.278       .  A
O3187      C3201   1.266       .  A
O3188      C3193   1.263       .  A
O3189      C3192   1.274       .  A
O3190      C3202   1.282       .  A
O3191      C3204   1.268       .  A
C3192      O3197   1.281       .  A
C3192      C3249   1.502       .  S
C3193      C3219   1.505       .  S
O3195      C3198   1.268       .  A
O3196      C3198   1.266       .  A
C3198      C3209   1.484       .  S
O3199      C3204   1.268       .  A
O3200      C3202   1.271       .  A
C3201      O3203   1.277       .  A
C3201      C3509   1.508       .  S
C3202      C3636   1.483       .  S
C3204      C3269   1.478       .  S
C3205      C3206   1.403       .  A
C3205      C3210   1.411       .  A
C3205     Br3212   1.926       .  S
C3206      C3207   1.401       .  A
C3207      C3208   1.399       .  A
C3207     Br3214   1.921       .  S
C3208      C3209   1.413       .  A
C3208     Br3213   1.923       .  S
C3209      C3210   1.420       .  A
C3210     Br3211   1.930       .  S
C3215      C3216   1.412       .  A
C3215      C3220   1.419       .  A
C3215     Br3222   1.925       .  S
C3216      C3217   1.408       .  A
C3217      C3218   1.416       .  A
C3217     Br3224   1.920       .  S
C3218      C3219   1.411       .  A
C3218     Br3223   1.915       .  S
C3219      C3220   1.412       .  A
C3220     Br3221   1.922       .  S
C3225      C3226   1.415       .  A
C3225      C3230   1.417       .  A
C3225     Br3232   1.914       .  S
C3226      C3227   1.408       .  A
C3227      C3228   1.406       .  A
C3227     Br3234   1.927       .  S
C3228      C3229   1.413       .  A
C3228     Br3233   1.925       .  S
C3229      C3230   1.408       .  A
C3230     Br3231   1.925       .  S
C3235      C3236   1.421       .  A
C3235      C3240   1.415       .  A
C3235     Br3242   1.929   1_556  S
C3236      C3237   1.418       .  A
C3237      C3238   1.395       .  A
C3237     Br3244   1.928       .  S
C3238      C3239   1.398       .  A
C3238     Br3243   1.921       .  S
C3239      C3240   1.407       .  A
C3240     Br3241   1.925   1_556  S
C3245      C3246   1.407       .  A
C3245      C3250   1.395       .  A
C3245     Br3252   1.936       .  S
C3246      C3247   1.420       .  A
C3247      C3248   1.428       .  A
C3247     Br3254   1.926       .  S
C3248      C3249   1.414       .  A
C3248     Br3253   1.922       .  S
C3249      C3250   1.407       .  A
C3250     Br3251   1.911       .  S
C3255      C3256   1.405       .  A
C3255      C3260   1.406       .  A
C3255     Br3262   1.933       .  S
C3256      C3257   1.404       .  A
C3257      C3258   1.405       .  A
C3257     Br3264   1.921       .  S
C3258      C3259   1.415       .  A
C3258     Br3263   1.930       .  S
C3259      C3260   1.409       .  A
C3260     Br3261   1.911       .  S
C3265      C3266   1.412       .  A
C3265      C3270   1.417       .  A
C3265     Br3272   1.927       .  S
C3266      C3267   1.416       .  A
C3267      C3268   1.397       .  A
C3267     Br3274   1.934       .  S
C3268      C3269   1.407       .  A
C3268     Br3273   1.941       .  S
C3269      C3270   1.414       .  A
C3270     Br3271   1.929       .  S
C3275      C3276   1.406       .  A
C3275      C3280   1.414       .  A
C3275     Br3282   1.925       .  S
C3276      C3277   1.408       .  A
C3277      C3278   1.417       .  A
C3277     Br3284   1.919       .  S
C3278      C3279   1.411       .  A
C3278     Br3283   1.916   1_655  S
C3279      C3280   1.414       .  A
C3280     Br3281   1.925       .  S
C3285      C3286   1.416       .  A
C3285      C3290   1.412       .  A
C3285     Br3292   1.922       .  S
C3286      C3287   1.420       .  A
C3287      C3288   1.396       .  A
C3287     Br3294   1.944       .  S
C3288      C3289   1.408       .  A
C3288     Br3293   1.938       .  S
C3289      C3290   1.406       .  A
C3290     Br3291   1.929       .  S
C3295      C3296   1.413       .  A
C3295      C3300   1.423       .  A
C3295     Br3302   1.924       .  S
C3296      C3297   1.408       .  A
C3297      C3298   1.401       .  A
C3297     Br3304   1.940       .  S
C3298      C3299   1.421       .  A
C3298     Br3303   1.929       .  S
C3299      C3300   1.420       .  A
C3300     Br3301   1.930       .  S
C3305      C3306   1.407       .  A
C3305      C3310   1.407       .  A
C3305     Br3312   1.923   1_556  S
C3306      C3307   1.404       .  A
C3307      C3308   1.407       .  A
C3307     Br3314   1.920       .  S
C3308      C3309   1.408       .  A
C3308     Br3313   1.916       .  S
C3309      C3310   1.414       .  A
C3310     Br3311   1.932   1_556  S
C3315      C3316   1.411       .  A
C3315      C3320   1.416       .  A
C3315     Br3322   1.916       .  S
C3316      C3317   1.407       .  A
C3317      C3318   1.411       .  A
C3317     Br3324   1.912   1_655  S
C3318      C3319   1.406       .  A
C3318     Br3323   1.917       .  S
C3319      C3320   1.409       .  A
C3320     Br3321   1.925       .  S
C3325      C3326   1.409       .  A
C3325     Br3332   1.929       .  S
C3326      C3327   1.402       .  A
C3327     Br3334   1.927       .  S
C3328      C3329   1.430   1_556  A
C3328     Br3333   1.937       .  S
C3329      C3330   1.420       .  A
C3330     Br3331   1.933       .  S
C3335      C3336   1.407       .  A
C3335      C3340   1.406   1_554  A
C3335     Br3342   1.934       .  S
C3336      C3337   1.408   1_554  A
C3337      C3338   1.410       .  A
C3337     Br3344   1.928       .  S
C3338      C3339   1.411       .  A
C3338     Br3343   1.929       .  S
C3339      C3340   1.414       .  A
C3340     Br3341   1.928       .  S
C3345      C3346   1.423       .  A
C3345      C3350   1.428       .  A
C3345     Br3352   1.928       .  S
C3346      C3347   1.427       .  A
C3347      C3348   1.407       .  A
C3347     Br3354   1.947       .  S
C3348      C3349   1.413       .  A
C3348     Br3353   1.940       .  S
C3349      C3350   1.414       .  A
C3350     Br3351   1.926       .  S
C3355      C3356   1.405       .  A
C3355     Br3362   1.935       .  S
C3356      C3357   1.412   1_554  A
C3357     Br3364   1.935       .  S
C3358      C3359   1.413   1_455  A
C3358     Br3363   1.935       .  S
C3359      C3360   1.418   1_556  A
C3360     Br3361   1.937       .  S
C3365      C3366   1.403       .  A
C3365      C3370   1.401       .  A
C3365     Br3372   1.934       .  S
C3366      C3367   1.407       .  A
C3367      C3368   1.409   1_554  A
C3367     Br3374   1.930       .  S
C3368      C3369   1.413       .  A
C3368     Br3373   1.928       .  S
C3369      C3370   1.415   1_556  A
C3370     Br3371   1.929   1_554  S
C3375      C3376   1.409       .  A
C3375      C3380   1.399       .  A
C3375     Br3382   1.926       .  S
C3376      C3377   1.410       .  A
C3377      C3378   1.412       .  A
C3377     Br3384   1.931   1_554  S
C3378      C3379   1.415       .  A
C3378     Br3383   1.925   1_554  S
C3379      C3380   1.408       .  A
C3380     Br3381   1.932       .  S
C3385      C3386   1.408       .  A
C3385      C3390   1.421       .  A
C3385     Br3392   1.927       .  S
C3386      C3387   1.405       .  A
C3387      C3388   1.403       .  A
C3387     Br3394   1.940       .  S
C3388      C3389   1.428       .  A
C3388     Br3393   1.943       .  S
C3389      C3390   1.424       .  A
C3390     Br3391   1.928       .  S
C3395      C3396   1.409       .  A
C3395      C3400   1.402       .  A
C3395     Br3402   1.924       .  S
C3396      C3397   1.412       .  A
C3397      C3398   1.416       .  A
C3397     Br3404   1.924       .  S
C3398      C3399   1.419       .  A
C3398     Br3403   1.932       .  S
C3399      C3400   1.410       .  A
C3400     Br3401   1.927       .  S
C3405      C3406   1.410       .  A
C3405      C3410   1.403       .  A
C3405     Br3412   1.930       .  S
C3406      C3407   1.412       .  A
C3407      C3408   1.412       .  A
C3407     Br3414   1.928       .  S
C3408      C3409   1.409       .  A
C3408     Br3413   1.921       .  S
C3409      C3410   1.407       .  A
C3415      C3420   1.410       .  A
C3415     Br3422   1.931       .  S
C3416      C3417   1.424   1_556  A
C3417     Br3424   1.936       .  S
C3418      C3419   1.406       .  A
C3418     Br3423   1.929       .  S
C3419      C3420   1.415   1_554  A
C3420     Br3421   1.935       .  S
C3425      C3426   1.404       .  A
C3425     Br3432   1.930       .  S
C3426      C3427   1.411   1_556  A
C3427     Br3434   1.928       .  S
C3428      C3429   1.416       .  A
C3428     Br3433   1.931       .  S
C3429      C3430   1.425   1_554  A
C3430     Br3431   1.929       .  S
C3435      C3436   1.411       .  A
C3435      C3440   1.414       .  A
C3435     Br3442   1.924       .  S
C3436      C3437   1.408       .  A
C3437      C3438   1.390       .  A
C3437     Br3444   1.924       .  S
C3438      C3439   1.399       .  A
C3438     Br3443   1.920       .  S
C3439      C3440   1.409       .  A
C3440     Br3441   1.925       .  S
C3445      C3446   1.409       .  A
C3445      C3450   1.410       .  A
C3445     Br3452   1.924       .  S
C3446      C3447   1.416       .  A
C3447      C3448   1.425       .  A
C3447     Br3454   1.923       .  S
C3448      C3449   1.417       .  A
C3448     Br3453   1.927       .  S
C3449      C3450   1.416       .  A
C3455      C3456   1.407   1_556  A
C3455      C3460   1.409       .  A
C3455     Br3462   1.929       .  S
C3456      C3457   1.405       .  A
C3457      C3458   1.403       .  A
C3457     Br3464   1.925       .  S
C3458      C3459   1.403       .  A
C3458     Br3463   1.917       .  S
C3459      C3460   1.410   1_554  A
C3460     Br3461   1.920       .  S
C3465      C3466   1.406       .  A
C3465      C3470   1.404       .  A
C3465     Br3472   1.928       .  S
C3466      C3467   1.403       .  A
C3467      C3468   1.409       .  A
C3467     Br3474   1.923       .  S
C3468      C3469   1.419       .  A
C3468     Br3473   1.932       .  S
C3469      C3470   1.408       .  A
C3470     Br3471   1.922       .  S
C3475      C3476   1.420       .  A
C3475      C3480   1.415       .  A
C3475     Br3482   1.931       .  S
C3476      C3477   1.412       .  A
C3477      C3478   1.406       .  A
C3477     Br3484   1.916       .  S
C3478      C3479   1.407       .  A
C3478     Br3483   1.930       .  S
C3479      C3480   1.407       .  A
C3480     Br3481   1.921       .  S
C3485      C3486   1.413       .  A
C3485      C3490   1.393       .  A
C3485     Br3492   1.940       .  S
C3486      C3487   1.417       .  A
C3487      C3488   1.415       .  A
C3487     Br3494   1.921       .  S
C3488      C3489   1.408       .  A
C3488     Br3493   1.927       .  S
C3489      C3490   1.409       .  A
C3490     Br3491   1.928       .  S
C3495      C3496   1.417       .  A
C3495      C3500   1.421       .  A
C3496      C3497   1.416       .  A
C3497      C3498   1.403       .  A
C3497     Br3504   1.945       .  S
C3498      C3499   1.422       .  A
C3498     Br3503   1.944       .  S
C3499      C3500   1.414       .  A
C3500     Br3501   1.925       .  S
C3505      C3506   1.424       .  A
C3505      C3510   1.418       .  A
C3505     Br3512   1.935       .  S
C3506      C3507   1.428       .  A
C3507      C3508   1.423       .  A
C3507     Br3514   1.932       .  S
C3508      C3509   1.411       .  A
C3508     Br3513   1.933       .  S
C3509      C3510   1.416       .  A
C3510     Br3511   1.937       .  S
C3515      C3516   1.420       .  A
C3515      C3520   1.418       .  A
C3515     Br3522   1.931       .  S
C3516      C3517   1.417       .  A
C3517      C3518   1.412       .  A
C3517     Br3524   1.937       .  S
C3518      C3519   1.420       .  A
C3518     Br3523   1.933   1_565  S
C3519      C3520   1.414       .  A
C3525      C3526   1.419       .  A
C3525      C3530   1.414       .  A
C3525     Br3532   1.937       .  S
C3526      C3527   1.415       .  A
C3527      C3528   1.419       .  A
C3527     Br3534   1.935       .  S
C3528      C3529   1.423       .  A
C3528     Br3533   1.934       .  S
C3529      C3530   1.417       .  A
C3530     Br3531   1.935       .  S
C3535      C3536   1.422       .  A
C3535      C3540   1.407       .  A
C3536      C3537   1.426       .  A
C3537      C3538   1.416       .  A
C3537     Br3544   1.933       .  S
C3538      C3539   1.406       .  A
C3538     Br3543   1.933   1_655  S
C3539      C3540   1.404       .  A
C3545      C3546   1.411       .  A
C3545      C3550   1.413       .  A
C3545     Br3552   1.929       .  S
C3546      C3547   1.410       .  A
C3547      C3548   1.411       .  A
C3547     Br3554   1.920       .  S
C3548      C3549   1.410       .  A
C3548     Br3553   1.933       .  S
C3549      C3550   1.408       .  A
C3550     Br3551   1.918       .  S
C3555      C3556   1.412       .  A
C3555      C3560   1.415       .  A
C3555     Br3562   1.929       .  S
C3556      C3557   1.412       .  A
C3557      C3558   1.406       .  A
C3557     Br3564   1.926       .  S
C3558      C3559   1.415       .  A
C3558     Br3563   1.938       .  S
C3559      C3560   1.415       .  A
C3560     Br3561   1.929       .  S
C3565      C3566   1.425       .  A
C3565      C3570   1.410       .  A
C3565     Br3572   1.937       .  S
C3566      C3567   1.421       .  A
C3567      C3568   1.409       .  A
C3567     Br3574   1.934       .  S
C3568      C3569   1.404       .  A
C3568     Br3573   1.931       .  S
C3569      C3570   1.403       .  A
C3575      C3576   1.417       .  A
C3575      C3580   1.414       .  A
C3576      C3577   1.412       .  A
C3577      C3578   1.403       .  A
C3577     Br3584   1.934       .  S
C3578      C3579   1.416       .  A
C3578     Br3583   1.933       .  S
C3579      C3580   1.417       .  A
C3585      C3586   1.425       .  A
C3585      C3590   1.413       .  A
C3586      C3587   1.429       .  A
C3587      C3588   1.415       .  A
C3587     Br3594   1.936       .  S
C3588      C3589   1.404       .  A
C3588     Br3593   1.928       .  S
C3589      C3590   1.406       .  A
C3595      C3596   1.416       .  A
C3595      C3600   1.415       .  A
C3595     Br3602   1.933       .  S
C3596      C3597   1.407       .  A
C3597      C3598   1.402       .  A
C3597     Br3604   1.936       .  S
C3598      C3599   1.416       .  A
C3599      C3600   1.415       .  A
C3600     Br3601   1.928       .  S
C3605      C3606   1.410       .  A
C3605      C3610   1.402       .  A
C3605     Br3612   1.933       .  S
C3606      C3607   1.421       .  A
C3607      C3608   1.417       .  A
C3608      C3609   1.417       .  A
C3608     Br3613   1.936       .  S
C3609      C3610   1.421       .  A
C3610     Br3611   1.937       .  S
C3615      C3616   1.408   1_545  A
C3615     Br3622   1.931       .  S
C3616      C3617   1.409       .  A
C3617     Br3624   1.918       .  S
C3618      C3619   1.410       .  A
C3618     Br3623   1.929       .  S
C3619      C3620   1.408       .  A
C3620     Br3621   1.912       .  S
C3625      C3630   1.415   1_455  A
C3625     Br3632   1.928   1_455  S
C3626      C3627   1.405       .  A
C3627      C3628   1.409       .  A
C3627     Br3634   1.921       .  S
C3628     Br3633   1.930       .  S
C3629      C3630   1.408       .  A
C3630     Br3631   1.915       .  S
C3635      C3636   1.408       .  A
C3635      C3640   1.409       .  A
C3635     Br3642   1.923       .  S
C3636      C3637   1.405       .  A
C3637      C3638   1.415       .  A
C3637     Br3644   1.930       .  S
C3638      C3639   1.424       .  A
C3638     Br3643   1.929       .  S
C3639      C3640   1.417       .  A
C3640     Br3641   1.937       .  S
C3645      C3646   1.409       .  A
C3645      C3650   1.415       .  A
C3645     Br3652   1.929       .  S
C3646      C3647   1.413       .  A
C3647      C3648   1.411       .  A
C3648      C3649   1.417       .  A
C3648     Br3653   1.936       .  S
C3649      C3650   1.418       .  A
C3650     Br3651   1.924       .  S
C3655      C3656   1.420       .  A
C3655      C3660   1.419       .  A
C3656      C3657   1.419       .  A
C3657      C3658   1.410       .  A
C3657     Br3664   1.945       .  S
C3658      C3659   1.430       .  A
C3658     Br3663   1.945       .  S
C3659      C3660   1.422       .  A
C3665      C3666   1.419       .  A
C3665      C3670   1.418       .  A
C3665     Br3672   1.934       .  S
C3666      C3667   1.413       .  A
C3667      C3668   1.406       .  A
C3667     Br3674   1.937       .  S
C3668      C3669   1.420       .  A
C3668     Br3673   1.932       .  S
C3669      C3670   1.419       .  A
C3675      C3676   1.405       .  A
C3675      C3680   1.411       .  A
C3675     Br3682   1.910       .  S
C3676      C3677   1.408       .  A
C3677      C3678   1.414       .  A
C3677     Br3684   1.923       .  S
C3678      C3679   1.408       .  A
C3678     Br3683   1.917       .  S
C3679      C3680   1.408       .  A
C3680     Br3681   1.927       .  S
C3685      C3686   1.414       .  A
C3685      C3690   1.417       .  A
C3685     Br3692   1.929       .  S
C3686      C3687   1.409       .  A
C3687      C3688   1.409       .  A
C3688      C3689   1.414       .  A
C3689      C3690   1.411       .  A
C3690     Br3691   1.924       .  S
C3695      C3696   1.412       .  A
C3695      C3700   1.407       .  A
C3695     Br3702   1.935       .  S
C3696      C3697   1.413       .  A
C3697      C3698   1.408       .  A
C3697     Br3704   1.936       .  S
C3698      C3699   1.415       .  A
C3698     Br3703   1.934       .  S
C3699      C3700   1.417       .  A
C3700     Br3701   1.935       .  S
C3705      C3706   1.412       .  A
C3705      C3710   1.416       .  A
C3705     Br3712   1.926       .  S
C3706      C3707   1.411       .  A
C3707      C3708   1.401       .  A
C3708      C3709   1.412       .  A
C3708     Br3713   1.933       .  S
C3709      C3710   1.411       .  A
C3710     Br3711   1.927       .  S
C3715      C3716   1.408   1_455  A
C3715     Br3722   1.927       .  S
C3716      C3717   1.404       .  A
C3717     Br3724   1.919       .  S
C3718      C3719   1.410       .  A
C3718     Br3723   1.922       .  S
C3719      C3720   1.407       .  A
C3720     Br3721   1.920       .  S
C3725      C3726   1.407       .  A
C3725     Br3732   1.924       .  S
C3727      C3728   1.414       .  A
C3728      C3729   1.410       .  A
C3728     Br3733   1.921       .  S
C3729      C3730   1.415       .  A
C3730     Br3731   1.927   1_565  S
C3735      C3736   1.414       .  A
C3735      C3740   1.401       .  A
C3735     Br3742   1.931       .  S
C3736      C3737   1.420       .  A
C3737      C3738   1.415       .  A
C3737     Br3744   1.932       .  S
C3738      C3739   1.413       .  A
C3738     Br3743   1.933       .  S
C3739      C3740   1.410       .  A
C3740     Br3741   1.928       .  S
