geometry optimzed in LAMMPS
_audit_creation_date              2020-11-30 
_audit_creation_method            'lammps2cif' 
_symmetry_space_group_name_H-M    'P1' 
_symmetry_Int_Tables_number       1 
_symmetry_cell_setting            triclinic 
loop_ 
_symmetry_equiv_pos_as_xyz 
  x,y,z 
_cell_length_a                    39.12213103 
_cell_length_b                    39.120545084018154 
_cell_length_c                    43.47693490589326 
_cell_angle_alpha                 89.9632509430979 
_cell_angle_beta                  89.96393896021307 
_cell_angle_gamma                 89.74392953987038 
loop_ 
_atom_site_label 
_atom_site_type_symbol 
_atom_site_fract_x 
_atom_site_fract_y 
_atom_site_fract_z 
_atom_site_charge 
O1          O  0.41799193  0.86496339  0.05549631    -0.71700
O2          O  0.42061237  0.87208642  0.46840175    -0.71900
O3          O  0.42026277  0.91742152  0.01541493    -0.71800
O4          O  0.41736884  0.81908701  0.50786882    -0.71800
O5          O  0.36135326  0.82291044  0.01344118    -0.71800
O6          O  0.36729277  0.91879342  0.51001989    -0.71800
O7          O  0.36519729  0.86878658  0.46788028    -0.71700
O8          O  0.36308028  0.87338507  0.05527683    -0.71900
V9          V  0.41746352  0.86901554  0.01187171     1.35200
V10         V  0.36575985  0.87043717  0.51155370     1.35200
C11         C  0.39043881  0.86922325  0.07030406     0.77500
C12         C  0.39304265  0.87108736  0.45324156     0.77600
C13         C  0.39553736  0.93400356  0.51305857     0.77500
C14         C  0.38883117  0.80410694  0.50982665     0.77400
O15         O  0.36665549  0.92230718  0.26184929    -0.71700
O16         O  0.36118277  0.82558736  0.26189804    -0.71900
O17         O  0.36445974  0.87364208  0.30568399    -0.71800
O18         O  0.36369807  0.87407536  0.21824133    -0.71800
O19         O  0.41911120  0.87019400  0.21790647    -0.71800
O20         O  0.41993819  0.87084305  0.30530741    -0.71800
O21         O  0.41660999  0.82191892  0.26116501    -0.71700
O22         O  0.42210413  0.91918417  0.26171923    -0.71900
V23         V  0.36510792  0.87386585  0.26195840     1.35200
V24         V  0.41838678  0.87062058  0.26157939     1.35200
C25         C  0.39520346  0.93727951  0.26178877     0.77500
C26         C  0.38782341  0.80726074  0.26086086     0.77600
C27         C  0.39232939  0.87224988  0.32037353     0.77500
C28         C  0.39128503  0.87163466  0.20319588     0.77400
O29         O  0.42783613  0.09877506  0.51326023    -0.71700
O30         O  0.42331630  0.19740376  0.01420896    -0.71900
O31         O  0.42347505  0.14734895  0.05691317    -0.71800
O32         O  0.42783033  0.14756521  0.46932661    -0.71800
O33         O  0.37237673  0.14570812  0.46893949    -0.71800
O34         O  0.36801132  0.14843670  0.05633535    -0.71800
O35         O  0.37095486  0.19537245  0.51054970    -0.71700
O36         O  0.36938649  0.09966065  0.01310020    -0.71900
V37         V  0.42611504  0.14745740  0.51309869     1.35200
V38         V  0.37280002  0.14703138  0.51242619     1.35200
C39         C  0.40020980  0.08209481  0.51382757     0.77500
C40         C  0.39831676  0.21236959  0.51090851     0.77600
C41         C  0.39554180  0.14740055  0.07152652     0.77500
C42         C  0.40019568  0.14692683  0.45423783     0.77400
O43         O  0.36790391  0.15190772  0.22000280    -0.71700
O44         O  0.37051707  0.14864283  0.30721319    -0.71900
O45         O  0.36904984  0.19885445  0.26519890    -0.71800
O46         O  0.36927901  0.10176590  0.26188151    -0.71800
O47         O  0.42476560  0.10150186  0.26328448    -0.71800
O48         O  0.42437657  0.19886225  0.26102619    -0.71800
O49         O  0.42594890  0.15074701  0.30581766    -0.71700
O50         O  0.42329229  0.14886284  0.21869130    -0.71900
V51         V  0.37024891  0.15029855  0.26358436     1.35200
V52         V  0.42354279  0.15010113  0.26226507     1.35200
C53         C  0.39515841  0.15007818  0.20443692     0.77500
C54         C  0.39872020  0.14925529  0.32139516     0.77600
C55         C  0.39658478  0.21546946  0.26285765     0.77500
C56         C  0.39703479  0.08506024  0.26221809     0.77400
O57         O  0.77003785  0.63554070  0.00247913    -0.71700
O58         O  0.86829515  0.63307895  0.50458016    -0.71900
O59         O  0.82078298  0.63389941  0.46009309    -0.71800
O60         O  0.81802137  0.63534503  0.04693198    -0.71800
O61         O  0.82028791  0.57991424  0.04684402    -0.71800
O62         O  0.81821479  0.57854054  0.45973840    -0.71800
O63         O  0.86719655  0.57989438  0.00177415    -0.71700
O64         O  0.77141642  0.57798441  0.50485683    -0.71900
V65         V  0.81983059  0.63219819  0.50369950     1.35200
V66         V  0.81988406  0.57890065  0.50322358     1.35200
C67         C  0.75483961  0.60577091  0.50385178     0.77500
C68         C  0.88496879  0.60537649  0.50316429     0.77600
C69         C  0.81928888  0.60634899  0.44497877     0.77500
C70         C  0.81903780  0.60754536  0.06180724     0.77400
O71         O  0.86632348  0.63424671  0.25463176    -0.71700
O72         O  0.76915560  0.63653570  0.25164984    -0.71900
O73         O  0.81635868  0.63574470  0.29681451    -0.71800
O74         O  0.81929873  0.63553702  0.20987359    -0.71800
O75         O  0.81599796  0.58020083  0.20975474    -0.71800
O76         O  0.81734524  0.58029012  0.29710893    -0.71800
O77         O  0.76824378  0.58103969  0.25423272    -0.71700
O78         O  0.86501115  0.57886814  0.25293668    -0.71900
V79         V  0.81772473  0.63445345  0.25329360     1.35200
V80         V  0.81666255  0.58115638  0.25347618     1.35200
C81         C  0.88229286  0.60603497  0.25401051     0.77500
C82         C  0.75225217  0.60907253  0.25264443     0.77600
C83         C  0.81702627  0.60814710  0.31188902     0.77500
C84         C  0.81786366  0.60797972  0.19488139     0.77400
O85         O  0.04945376  0.57455879  0.50425660    -0.71700
O86         O  0.14533126  0.57213435  0.00355223    -0.71900
O87         O  0.09617398  0.57300945  0.04697969    -0.71800
O88         O  0.09733755  0.57246144  0.46030161    -0.71800
O89         O  0.09821102  0.62786568  0.45899283    -0.71800
O90         O  0.09815080  0.62847969  0.04727532    -0.71800
O91         O  0.14718969  0.62819540  0.50229657    -0.71700
O92         O  0.04940248  0.63005606  0.00380009    -0.71900
V93         V  0.09784863  0.57485362  0.50389528     1.35200
V94         V  0.09856302  0.62812300  0.50252988     1.35200
C95         C  0.03311226  0.60245990  0.50345758     0.77500
C96         C  0.16332482  0.60008750  0.50279897     0.77600
C97         C  0.09712473  0.60065991  0.06198893     0.77500
C98         C  0.09744048  0.59975904  0.44471073     0.77400
O99         O  0.14302708  0.56961306  0.25077486    -0.71700
O100        O  0.04610447  0.57391117  0.25523359    -0.71900
O101        O  0.09204669  0.57179531  0.20953949    -0.71800
O102        O  0.09680785  0.57187109  0.29672578    -0.71800
O103        O  0.09491108  0.62728361  0.29643299    -0.71800
O104        O  0.09852695  0.62689244  0.20945353    -0.71800
O105        O  0.04826547  0.62913484  0.25143850    -0.71700
O106        O  0.14518160  0.62493441  0.25477343    -0.71900
V107        V  0.09456584  0.57280275  0.25308800     1.35200
V108        V  0.09668241  0.62601900  0.25299054     1.35200
C109        C  0.16061233  0.59656902  0.25268176     0.77500
C110        C  0.03054682  0.60226930  0.25349663     0.77600
C111        C  0.09504312  0.59935808  0.19461512     0.77500
C112        C  0.09587294  0.59971185  0.31152768     0.77400
O113        O  0.56087970  0.20220681  0.98977129    -0.71700
O114        O  0.55271635  0.10502644  0.48662958    -0.71900
O115        O  0.55755965  0.15524419  0.44488219    -0.71800
O116        O  0.55689758  0.15248987  0.03174741    -0.71800
O117        O  0.50157312  0.15710170  0.03128358    -0.71800
O118        O  0.50220176  0.15924319  0.44351496    -0.71800
O119        O  0.49879289  0.10929533  0.98609997    -0.71700
O120        O  0.50432361  0.20597656  0.48838380    -0.71900
V121        V  0.55509741  0.15335027  0.48843448     1.35200
V122        V  0.50191320  0.15748449  0.48717072     1.35200
C123        C  0.53319318  0.22022926  0.49022942     0.77500
C124        C  0.52398153  0.09040728  0.48562503     0.77600
C125        C  0.53039655  0.15792004  0.42932958     0.77500
C126        C  0.52914993  0.15517757  0.04643730     0.77400
O127        O  0.55580358  0.11141404  0.23909789    -0.71700
O128        O  0.56464407  0.20782213  0.23739621    -0.71900
O129        O  0.56008949  0.16042625  0.28180464    -0.71800
O130        O  0.56006348  0.15843935  0.19444725    -0.71800
O131        O  0.50507637  0.16604436  0.19441089    -0.71800
O132        O  0.50465002  0.16386717  0.28169886    -0.71800
O133        O  0.50940306  0.21314569  0.23965140    -0.71700
O134        O  0.50057678  0.11623001  0.23697004    -0.71900
V135        V  0.55907140  0.15966396  0.23812777     1.35200
V136        V  0.50596658  0.16470744  0.23809521     1.35200
C137        C  0.52684846  0.09723938  0.23819537     0.77500
C138        C  0.53860524  0.22691100  0.23943128     0.77600
C139        C  0.53232113  0.16240724  0.29662886     0.77500
C140        C  0.53253620  0.16183390  0.17948661     0.77400
O141        O  0.49511613  0.92455578  0.48577557    -0.71700
O142        O  0.49769045  0.82818617  0.99491546    -0.71900
O143        O  0.49591855  0.88153141  0.03391774    -0.71800
O144        O  0.49762124  0.87088404  0.44686059    -0.71800
O145        O  0.55242069  0.87931151  0.44663900    -0.71800
O146        O  0.55123517  0.87694264  0.03402185    -0.71800
O147        O  0.55489268  0.82980718  0.48957948    -0.71700
O148        O  0.54997052  0.92639307  0.99133263    -0.71900
V149        V  0.49830731  0.87593763  0.49035402     1.35200
V150        V  0.55144511  0.87813977  0.49030763     1.35200
C151        C  0.52211969  0.94216669  0.48807606     0.77500
C152        C  0.52833577  0.81203326  0.49335937     0.77600
C153        C  0.52356752  0.87968413  0.04890485     0.77500
C154        C  0.52499431  0.87490217  0.43180602     0.81400
O155        O  0.49629782  0.83452165  0.24101913    -0.71700
O156        O  0.49509327  0.93221341  0.24047070    -0.71900
O157        O  0.49527033  0.88363406  0.19697503    -0.71800
O158        O  0.49583031  0.88303859  0.28433721    -0.71800
O159        O  0.55134720  0.88367618  0.28396251    -0.71800
O160        O  0.55077054  0.88379011  0.19661247    -0.71800
O161        O  0.55053292  0.93219796  0.24043070    -0.71700
O162        O  0.55181787  0.83527594  0.24004409    -0.71900
V163        V  0.49666614  0.88337639  0.24065756     1.35200
V164        V  0.54999824  0.88375768  0.24027609     1.35200
C165        C  0.52441404  0.81832653  0.24081279     0.77500
C166        C  0.52278803  0.94887222  0.24051327     0.77600
C167        C  0.52290752  0.88379834  0.18189136     0.77500
C168        C  0.52369568  0.88296739  0.29903119     0.77400
O169        O  0.33153698  0.42389111  0.02958022    -0.71700
O170        O  0.42867749  0.42962137  0.02783234    -0.71900
O171        O  0.37696201  0.47491343  0.02732354    -0.71800
O172        O  0.38380785  0.37820338  0.03048484    -0.71800
O173        O  0.38229734  0.37530185  0.47754269    -0.71800
O174        O  0.37809973  0.47274571  0.47615369    -0.71800
O175        O  0.42844450  0.42610216  0.47632217    -0.71700
O176        O  0.33186215  0.42244009  0.47701270    -0.71900
V177        V  0.38014493  0.42657870  0.02783863     1.35200
V178        V  0.38014985  0.42406812  0.47773598     1.35200
C179        C  0.31530376  0.42137142  0.50192421     0.77500
C180        C  0.44512930  0.42866018  0.50104887     0.77600
C181        C  0.37543920  0.49060373  0.00195787     0.77500
C182        C  0.38462695  0.36068182  0.00608959     0.77400
O183        O  0.38965290  0.37818191  0.22943220    -0.71700
O184        O  0.37848208  0.47528724  0.22442145    -0.71900
O185        O  0.43204184  0.43186674  0.22653779    -0.71800
O186        O  0.33582554  0.42140358  0.22670015    -0.71800
O187        O  0.33510917  0.42823720  0.27627477    -0.71800
O188        O  0.43234160  0.43159665  0.27653868    -0.71800
O189        O  0.38158638  0.47796132  0.27426411    -0.71700
O190        O  0.38539075  0.38127427  0.27917195    -0.71900
V191        V  0.38397934  0.42672047  0.22769820     1.35200
V192        V  0.38366337  0.42964865  0.27560564     1.35200
C193        C  0.38868530  0.36319390  0.25527393     0.77500
C194        C  0.37859449  0.49311979  0.24875596     0.77600
C195        C  0.44862264  0.43302128  0.25139861     0.77500
C196        C  0.31894419  0.42414024  0.25136210     0.77400
O197        O  0.37529732  0.64115071  0.02842960    -0.71700
O198        O  0.37469465  0.54439021  0.02673547    -0.71900
O199        O  0.42350512  0.59256141  0.02686851    -0.71800
O200        O  0.32640945  0.59359940  0.02787708    -0.71800
O201        O  0.32676460  0.59302946  0.47749261    -0.71800
O202        O  0.42377259  0.59272736  0.47642776    -0.71800
O203        O  0.37521943  0.54399265  0.47626716    -0.71700
O204        O  0.37584863  0.64145789  0.47799373    -0.71900
V205        V  0.37494586  0.59283393  0.02647682     1.35200
V206        V  0.37530822  0.59272661  0.47800084     1.35200
C207        C  0.37625467  0.65731019  0.50337446     0.77500
C208        C  0.37567135  0.52706053  0.50108159     0.77600
C209        C  0.43964854  0.59343094  0.00166587     0.77500
C210        C  0.30976793  0.59422931  0.00297837     0.77400
O211        O  0.32394245  0.59526827  0.22558239    -0.71700
O212        O  0.42108425  0.59742855  0.22301550    -0.71900
O213        O  0.37387437  0.54746262  0.22341980    -0.71800
O214        O  0.37212870  0.64516432  0.22542567    -0.71800
O215        O  0.37258134  0.64367318  0.27539965    -0.71800
O216        O  0.37560949  0.54690992  0.27337499    -0.71800
O217        O  0.42237312  0.59677453  0.27300614    -0.71700
O218        O  0.32545978  0.59430566  0.27553210    -0.71900
V219        V  0.37261345  0.59630878  0.22529056     1.35200
V220        V  0.37392568  0.59533192  0.27330179     1.35200
C221        C  0.30815938  0.59464295  0.25099384     0.77500
C222        C  0.43815358  0.59801918  0.24765338     0.77600
C223        C  0.37573958  0.53065636  0.24826375     0.77500
C224        C  0.37285677  0.66092708  0.25087016     0.77400
O225        O  0.54991970  0.38311076  0.02133585    -0.71700
O226        O  0.54632311  0.48037083  0.02446122    -0.71900
O227        O  0.49961939  0.42995368  0.02529089    -0.71800
O228        O  0.59651196  0.43365465  0.02060951    -0.71800
O229        O  0.59449222  0.43088348  0.47060994    -0.71800
O230        O  0.49768413  0.43397140  0.47466434    -0.71800
O231        O  0.54744683  0.48127143  0.47383427    -0.71700
O232        O  0.54414260  0.38430636  0.47150593    -0.71900
V233        V  0.54806138  0.43179867  0.02200404     1.35200
V234        V  0.54607722  0.43267320  0.47360790     1.35200
C235        C  0.54656456  0.36692226  0.49591766     0.77500
C236        C  0.54690905  0.49703384  0.49922877     0.77600
C237        C  0.48175077  0.43205324  0.00114422     0.77500
C238        C  0.61158744  0.43244583  0.99490211     0.77400
O239        O  0.59843191  0.44172565  0.22230015    -0.71700
O240        O  0.50172686  0.43476920  0.22526702    -0.71900
O241        O  0.54634879  0.48662955  0.22399436    -0.71800
O242        O  0.55375541  0.38994102  0.22343262    -0.71800
O243        O  0.55085292  0.38932509  0.27336628    -0.71800
O244        O  0.55181102  0.48669716  0.27374687    -0.71800
O245        O  0.50310933  0.43830424  0.27515491    -0.71700
O246        O  0.60026176  0.43686695  0.27207995    -0.71900
V247        V  0.55010122  0.43830197  0.22471255     1.35200
V248        V  0.55162345  0.43793239  0.27268385     1.35200
C249        C  0.61584641  0.43904556  0.24664645     0.77500
C250        C  0.48596861  0.43558470  0.25066603     0.77600
C251        C  0.54807565  0.50316559  0.24888452     0.77500
C252        C  0.55229848  0.37314598  0.24822383     0.77400
O253        O  0.58997477  0.60315137  0.02583728    -0.71700
O254        O  0.49344032  0.59671439  0.02611878    -0.71900
O255        O  0.54501921  0.55148174  0.02569019    -0.71800
O256        O  0.53776297  0.64883322  0.02574085    -0.71800
O257        O  0.54022803  0.64842146  0.47666897    -0.71800
O258        O  0.54557004  0.55159881  0.47537030    -0.71800
O259        O  0.49427543  0.59726385  0.47599733    -0.71700
O260        O  0.59136853  0.60289375  0.47648466    -0.71900
V261        V  0.54164417  0.60011163  0.02488145     1.35200
V262        V  0.54283711  0.60002907  0.47711202     1.35200
C263        C  0.60756591  0.60317440  0.50165220     0.77500
C264        C  0.47780130  0.59547182  0.50100239     0.77600
C265        C  0.54574329  0.53519710  0.00055060     0.77500
C266        C  0.53667766  0.66518782  0.00059273     0.77400
O267        O  0.58820294  0.60986668  0.27250804    -0.71700
O268        O  0.49181965  0.60202000  0.27210977    -0.71900
O269        O  0.54437904  0.55766942  0.27327292    -0.71800
O270        O  0.53532282  0.65481875  0.27101884    -0.71800
O271        O  0.53749088  0.65344247  0.22110869    -0.71800
O272        O  0.54355765  0.55653753  0.22329753    -0.71800
O273        O  0.49186889  0.60198563  0.22210427    -0.71700
O274        O  0.58897284  0.60779572  0.22257870    -0.71900
V275        V  0.53996404  0.60616482  0.27124361     1.35200
V276        V  0.54043485  0.60499013  0.22323360     1.35200
C277        C  0.60510800  0.60937084  0.24774175     0.77500
C278        C  0.47544469  0.60065510  0.24715374     0.77600
C279        C  0.54534805  0.54063202  0.24856817     0.77500
C280        C  0.53505618  0.67068130  0.24560520     0.77400
O281        O  0.15100011  0.39276207  0.99630115    -0.71700
O282        O  0.05439335  0.39408316  0.49301070    -0.71900
O283        O  0.10647135  0.39320698  0.45280568    -0.71800
O284        O  0.10228938  0.39359717  0.03952537    -0.71800
O285        O  0.10196935  0.44905731  0.03938745    -0.71800
O286        O  0.10162836  0.44846453  0.45198909    -0.71800
O287        O  0.05435065  0.44935312  0.99486577    -0.71700
O288        O  0.15132958  0.44911266  0.49456068    -0.71900
V289        V  0.10251308  0.39444951  0.99593820     1.35200
V290        V  0.10289941  0.44776110  0.99585792     1.35200
C291        C  0.16774091  0.42028733  0.99746314     0.77500
C292        C  0.03750777  0.42180355  0.99499155     0.77600
C293        C  0.10424396  0.42057511  0.43743790     0.77500
C294        C  0.10244103  0.42137415  0.05436711     0.77400
O295        O  0.05787599  0.39597669  0.24598394    -0.71700
O296        O  0.15506672  0.39483474  0.24471444    -0.71900
O297        O  0.10711320  0.39481894  0.28909501    -0.71800
O298        O  0.10587004  0.39579441  0.20199993    -0.71800
O299        O  0.10993966  0.45108299  0.20233240    -0.71800
O300        O  0.10376026  0.45018979  0.28944630    -0.71800
O301        O  0.15523412  0.45019478  0.24884154    -0.71700
O302        O  0.05850532  0.45132214  0.24308243    -0.71900
V303        V  0.10649735  0.39638899  0.24548718     1.35200
V304        V  0.10686801  0.44965958  0.24591391     1.35200
C305        C  0.04155372  0.42390411  0.24397051     0.77500
C306        C  0.17164742  0.42237758  0.24709012     0.77600
C307        C  0.10497711  0.42234446  0.30420810     0.77500
C308        C  0.10815768  0.42352284  0.18723653     0.77400
O309        O  0.87358700  0.45422998  0.49026017    -0.71700
O310        O  0.77624322  0.45748692  0.99344988    -0.71900
O311        O  0.82613198  0.45522737  0.03550921    -0.71800
O312        O  0.82356896  0.45510013  0.44789676    -0.71800
O313        O  0.82494137  0.39967097  0.44841029    -0.71800
O314        O  0.82245363  0.39991992  0.03486783    -0.71800
O315        O  0.77522832  0.40169233  0.49071494    -0.71700
O316        O  0.87195178  0.39919793  0.99230960    -0.71900
V317        V  0.82512626  0.45457270  0.49155315     1.35200
V318        V  0.82378398  0.40129415  0.49193579     1.35200
C319        C  0.88956724  0.42612507  0.49179579     0.77500
C320        C  0.75945894  0.42993559  0.49208871     0.77600
C321        C  0.82475713  0.42730393  0.05010381     0.77500
C322        C  0.82418274  0.42717755  0.43320005     0.77400
O323        O  0.78076681  0.45842750  0.23982153    -0.71700
O324        O  0.87761985  0.45413811  0.24285824    -0.71900
O325        O  0.83083568  0.45601259  0.19797506    -0.71800
O326        O  0.82738870  0.45625599  0.28502407    -0.71800
O327        O  0.82724427  0.40081392  0.28517214    -0.71800
O328        O  0.82674056  0.40074031  0.19802503    -0.71800
O329        O  0.87564039  0.39874740  0.24138407    -0.71700
O330        O  0.77847166  0.40301984  0.24209002    -0.71900
V331        V  0.82914836  0.45512971  0.24145543     1.35200
V332        V  0.82708755  0.40187689  0.24162494     1.35200
C333        C  0.76307786  0.43150890  0.24087220     0.77500
C334        C  0.89325446  0.42578107  0.24225117     0.77600
C335        C  0.82878882  0.42838538  0.18307383     0.77500
C336        C  0.82677824  0.42856238  0.30002603     0.77400
C337        C  0.82416393  0.42687827  0.39911151    -0.05400
C338        C  0.82077373  0.45785093  0.38309870    -0.32800
C339        C  0.82134365  0.45884574  0.35099604     0.36400
C340        C  0.82550012  0.42840247  0.33405524    -0.05800
C341        C  0.82827342  0.39726083  0.35000302    -0.32700
C342        C  0.82776054  0.39630189  0.38216616     0.36300
H343        H  0.81752624  0.48151150  0.39551117     0.16700
O344        O  0.81797675  0.48981954  0.33653125    -0.60200
H345        H  0.83119043  0.37344420  0.33755346     0.16700
O346        O  0.83066161  0.36527064  0.39665174    -0.60300
H347        H  0.85559224  0.36095931  0.39834573     0.43700
H348        H  0.79306519  0.49276001  0.33314067     0.43700
C349        C  0.82606842  0.42697725  0.08409613    -0.05400
C350        C  0.82555787  0.45815439  0.10003366    -0.32800
C351        C  0.82649230  0.45902545  0.13210198     0.36400
C352        C  0.82840763  0.42832552  0.14905063    -0.05800
C353        C  0.82924873  0.39710385  0.13312948    -0.32700
C354        C  0.82818946  0.39622528  0.10099209     0.36300
H355        H  0.82409220  0.48211043  0.08761336     0.16700
O356        O  0.82513814  0.49012388  0.14653338    -0.60200
H357        H  0.83072960  0.37315098  0.14558778     0.16700
O358        O  0.82901365  0.36511395  0.08648159    -0.60300
H359        H  0.85363082  0.35967940  0.08385810     0.43700
H360        H  0.80051335  0.49409250  0.15072902     0.43700
C361        C  0.00362649  0.42444155  0.24284980    -0.05400
C362        C  0.98525659  0.39458185  0.24969855    -0.32800
C363        C  0.94944193  0.39451013  0.24959240     0.36400
C364        C  0.93117475  0.42462725  0.24234347    -0.05800
C365        C  0.94955419  0.45432809  0.23510193    -0.32700
C366        C  0.98531086  0.45442448  0.23514182     0.36300
H367        H  0.99866309  0.37119374  0.25559901     0.16700
O368        O  0.93267284  0.36487959  0.25688709    -0.60200
H369        H  0.93616502  0.47760930  0.22896245     0.16700
O370        O  0.00196041  0.48404389  0.22753958    -0.60300
H371        H  0.00461179  0.48325906  0.20485978     0.43700
H372        H  0.92938487  0.36574799  0.27949556     0.43700
C373        C  0.10426895  0.42026371  0.40334460    -0.05400
C374        C  0.09494743  0.45007735  0.38739977    -0.32800
C375        C  0.09467835  0.45104852  0.35527993     0.36400
C376        C  0.10416178  0.42186162  0.33826038    -0.05800
C377        C  0.11305881  0.39181293  0.35414524    -0.32700
C378        C  0.11304405  0.39078790  0.38634606     0.36300
H379        H  0.08731924  0.47270989  0.39989722     0.16700
O380        O  0.08492206  0.48068319  0.34083600    -0.60200
H381        H  0.12039730  0.36901104  0.34160044     0.16700
O382        O  0.12252841  0.36108279  0.40083973    -0.60300
H383        H  0.10134833  0.34731111  0.40209969     0.43700
H384        H  0.05965986  0.47947890  0.33937034     0.43700
C385        C  0.10390257  0.42165830  0.08834113    -0.05400
C386        C  0.11174698  0.45219614  0.10376916    -0.32800
C387        C  0.11418936  0.45311731  0.13584723     0.36400
C388        C  0.10791408  0.42333920  0.15321259    -0.05800
C389        C  0.10049106  0.39275465  0.13772744    -0.32700
C390        C  0.09845997  0.39171645  0.10568920     0.36300
H391        H  0.11653550  0.47544425  0.09093658     0.16700
O392        O  0.12286226  0.48324056  0.14985643    -0.60200
H393        H  0.09577785  0.36944547  0.15048179     0.16700
O394        O  0.09104169  0.36122724  0.09169420    -0.60300
H395        H  0.06574006  0.36056859  0.09045595     0.43700
H396        H  0.14820223  0.48322950  0.15046357     0.43700
C397        C  0.99954360  0.42239994  0.99449686    -0.05400
C398        C  0.98219690  0.45341496  0.99944194    -0.32800
C399        C  0.94646651  0.45509807  0.99893952     0.36400
C400        C  0.92713149  0.42546509  0.99296181    -0.05800
C401        C  0.94485183  0.39514357  0.48392459    -0.32700
C402        C  0.98064910  0.39353535  0.48443260     0.36300
H403        H  0.99639493  0.47651443  0.00410570     0.16700
O404        O  0.93081019  0.48589587  0.00451864    -0.60200
H405        H  0.93069767  0.37283747  0.47661448     0.16700
O406        O  0.99657735  0.36397960  0.47517796    -0.60300
H407        H  0.99662789  0.34896791  0.49356878     0.43700
H408        H  0.92752356  0.48675619  0.02712800     0.43700
C409        C  0.65344486  0.43732813  0.24524145    -0.05400
C410        C  0.67162826  0.46082691  0.22723809    -0.32800
C411        C  0.70738306  0.45923366  0.22553883     0.36400
C412        C  0.72535584  0.43333756  0.24142699    -0.05800
C413        C  0.70698627  0.40931252  0.25872186    -0.32700
C414        C  0.67135291  0.41136942  0.26093377     0.36300
H415        H  0.65809424  0.48072656  0.21481145     0.16700
O416        O  0.72444480  0.48294816  0.20814373    -0.60200
H417        H  0.72035609  0.38923914  0.27106253     0.16700
O418        O  0.65420426  0.38760656  0.27819679    -0.60300
H419        H  0.64773260  0.36937592  0.26350460     0.43700
H420        H  0.72787776  0.47195619  0.18781729     0.43700
C421        C  0.64928712  0.43239150  0.99333734    -0.05400
C422        C  0.66834820  0.45409634  0.51237711    -0.32800
C423        C  0.70411061  0.45427938  0.51156825     0.36400
C424        C  0.72180531  0.43108442  0.49249915    -0.05800
C425        C  0.70277150  0.41232255  0.97096837    -0.32700
C426        C  0.66696400  0.41304634  0.97103029     0.36300
H427        H  0.65505451  0.47165469  0.52755513     0.16700
O428        O  0.72153495  0.47616799  0.53048314    -0.60200
H429        H  0.71606422  0.39701154  0.95394315     0.16700
O430        O  0.64953857  0.39426613  0.94956742    -0.60300
H431        H  0.64527476  0.37186736  0.95952124     0.43700
H432        H  0.72366983  0.49767360  0.51856547     0.43700
C433        C  0.28124576  0.42314938  0.25085327    -0.05400
C434        C  0.26441016  0.40265754  0.22914816    -0.32800
C435        C  0.22864460  0.40167881  0.22803669     0.36400
C436        C  0.20925386  0.42222493  0.24814758    -0.05800
C437        C  0.22604668  0.44326773  0.26935299    -0.32700
C438        C  0.26174931  0.44343375  0.27115157     0.36300
H439        H  0.27902135  0.38716459  0.21315865     0.16700
O440        O  0.21291045  0.38189600  0.20624212    -0.60200
H441        H  0.21140118  0.45937132  0.28482789     0.16700
O442        O  0.27735060  0.46475799  0.29180927    -0.60300
H443        H  0.27764119  0.45193621  0.31149291     0.43700
H444        H  0.21119122  0.35884691  0.21560381     0.43700
C445        C  0.27747384  0.42177413  0.50142528    -0.05400
C446        C  0.26073398  0.39415125  0.98842901    -0.32800
C447        C  0.22502646  0.39343174  0.98640334     0.36400
C448        C  0.20540449  0.41984872  0.99976283    -0.05800
C449        C  0.22395806  0.43919635  0.47728810    -0.32700
C450        C  0.25967403  0.43893982  0.47766817     0.36300
H451        H  0.27560866  0.37428778  0.97725109     0.16700
O452        O  0.20969315  0.36772272  0.97008413    -0.60200
H453        H  0.21070790  0.45246143  0.45889710     0.16700
O454        O  0.27683417  0.45535317  0.45445809    -0.60300
H455        H  0.28727367  0.47571151  0.46413126     0.43700
H456        H  0.20788942  0.34833483  0.98469712     0.43700
C457        C  0.52575560  0.78051888  0.24159204    -0.05400
C458        C  0.54893657  0.76320353  0.22243394    -0.32800
C459        C  0.55192066  0.72751564  0.22344323     0.36400
C460        C  0.53208763  0.70845340  0.24433960    -0.05800
C461        C  0.50916166  0.72578973  0.26382397    -0.32700
C462        C  0.50570153  0.76153273  0.26237459     0.36300
H463        H  0.56475054  0.77743935  0.20650401     0.16700
O464        O  0.57483122  0.71156048  0.20428703    -0.60200
H465        H  0.49364050  0.71154878  0.27997152     0.16700
O466        O  0.48322996  0.77768496  0.28182018    -0.60300
H467        H  0.49715880  0.78495689  0.29969224     0.43700
H468        H  0.59624474  0.70971920  0.21637919     0.43700
C469        C  0.53102613  0.77435309  0.49580423    -0.05400
C470        C  0.50732676  0.75653999  0.01531961    -0.32800
C471        C  0.51053079  0.72089723  0.01827362     0.36400
C472        C  0.53669619  0.70248152  0.50122450    -0.05800
C473        C  0.55727471  0.72047819  0.48038742    -0.32700
C474        C  0.55512223  0.75611092  0.47806257     0.36300
H475        H  0.48901215  0.77008442  0.02956776     0.16700
O476        O  0.48963362  0.70380152  0.03834252    -0.60200
H477        H  0.57529588  0.70682169  0.46591400     0.16700
O478        O  0.57568799  0.77272490  0.45737027    -0.60300
H479        H  0.59796344  0.77538409  0.46796586     0.43700
H480        H  0.50166323  0.70451040  0.05839893     0.43700
C481        C  0.52488846  0.87578167  0.39776625    -0.05400
C482        C  0.54960479  0.89525830  0.38228648    -0.32800
C483        C  0.54918381  0.89820550  0.35020676     0.36400
C484        C  0.52394994  0.88128648  0.33296014    -0.05800
C485        C  0.49924014  0.86175526  0.34835977    -0.32700
C486        C  0.49977714  0.85862844  0.38045952     0.36300
H487        H  0.56891447  0.90893134  0.39514966     0.16700
O488        O  0.57315329  0.91826499  0.33600085    -0.60200
H489        H  0.47989865  0.84822304  0.33541737     0.16700
O490        O  0.47584586  0.83848671  0.39461153    -0.60300
H491        H  0.48675679  0.81565387  0.39650735     0.43700
H492        H  0.56237668  0.94118831  0.33428379     0.43700
C493        C  0.52354084  0.88074412  0.08293211    -0.05400
C494        C  0.49666575  0.89715590  0.09859018    -0.32800
C495        C  0.49626116  0.89880134  0.13086950     0.36400
C496        C  0.52281454  0.88338167  0.14789799    -0.05800
C497        C  0.54971488  0.86715380  0.13223465    -0.32700
C498        C  0.55031773  0.86585722  0.10008885     0.36300
H499        H  0.47627151  0.90943291  0.08576855     0.16700
O500        O  0.47144129  0.91765122  0.14559656    -0.60200
H501        H  0.57023835  0.85501788  0.14498983     0.16700
O502        O  0.57655051  0.84878000  0.08574727    -0.60300
H503        H  0.59564873  0.86534175  0.08488826     0.43700
H504        H  0.44918501  0.90947251  0.13770464     0.43700
C505        C  0.54242373  0.26429596  0.24225653    -0.05400
C506        C  0.56911386  0.28088962  0.22673041    -0.32800
C507        C  0.57310480  0.31636442  0.22902879     0.36400
C508        C  0.55067320  0.33559765  0.24754731    -0.05800
C509        C  0.52478447  0.31891462  0.26396996    -0.32700
C510        C  0.52038877  0.28355677  0.26126334     0.36300
H511        H  0.58653894  0.26640465  0.21233194     0.16700
O512        O  0.59885978  0.33206764  0.21300850    -0.60200
H513        H  0.50728582  0.33348860  0.27823551     0.16700
O514        O  0.49464494  0.26806695  0.27746203    -0.60300
H515        H  0.50504002  0.26147644  0.29741163     0.43700
H516        H  0.61965408  0.32875741  0.22571597     0.43700
C517        C  0.52312920  0.98688184  0.24057543    -0.05400
C518        C  0.49470318  0.00563342  0.22994700    -0.32800
C519        C  0.49527004  0.04155546  0.22901435     0.36400
C520        C  0.52449845  0.05937255  0.23905219    -0.05800
C521        C  0.55262865  0.04055842  0.24997207    -0.32700
C522        C  0.55218204  0.00485345  0.25075876     0.36300
H523        H  0.47214491  0.99240901  0.22188957     0.16700
O524        O  0.46734617  0.05883745  0.21783250    -0.60200
H525        H  0.57523636  0.05358218  0.25819257     0.16700
O526        O  0.57999429  0.98784984  0.26254003    -0.60300
H527        H  0.59692132  0.98714675  0.24555602     0.43700
H528        H  0.47200911  0.06215376  0.19560973     0.43700
C529        C  0.53610574  0.25773987  0.49196511    -0.05400
C530        C  0.56345383  0.27331000  0.00849884    -0.32800
C531        C  0.56640732  0.30892357  0.01054459     0.36400
C532        C  0.54356656  0.32936011  0.49484553    -0.05800
C533        C  0.51961821  0.31460115  0.47486373    -0.32700
C534        C  0.51533155  0.27912333  0.47377002     0.36300
H535        H  0.58168449  0.25731268  0.02062050     0.16700
O536        O  0.59241619  0.32274596  0.02755801    -0.60200
H537        H  0.50373067  0.33069541  0.46040175     0.16700
O538        O  0.49179905  0.26554462  0.45390071    -0.60300
H539        H  0.46971698  0.26650110  0.46510157     0.43700
H540        H  0.61133760  0.32642406  0.01274128     0.43700
C541        C  0.53155302  0.15964275  0.39542149    -0.05400
C542        C  0.50664059  0.17857870  0.37952761    -0.32800
C543        C  0.50692424  0.18030789  0.34729130     0.36400
C544        C  0.53221589  0.16252166  0.33056553    -0.05800
C545        C  0.55755725  0.14425477  0.34650036    -0.32700
C546        C  0.55746951  0.14284892  0.37864889     0.36300
H547        H  0.48710278  0.19243222  0.39213827     0.16700
O548        O  0.48376570  0.20094011  0.33233118    -0.60200
H549        H  0.57719147  0.13046175  0.33396514     0.16700
O550        O  0.58195062  0.12370531  0.39336503    -0.60300
H551        H  0.60211249  0.13887544  0.39498363     0.43700
H552        H  0.46083093  0.19359747  0.33931655     0.43700
C553        C  0.53223962  0.16051828  0.14542179    -0.05400
C554        C  0.50512650  0.17570286  0.12914532    -0.32800
C555        C  0.50385140  0.17432232  0.09696823     0.36400
C556        C  0.52945627  0.15672886  0.08045877    -0.05800
C557        C  0.55672267  0.14181233  0.09670244    -0.32700
C558        C  0.55837483  0.14374441  0.12882389     0.36300
H559        H  0.48496713  0.18906812  0.14137361     0.16700
O560        O  0.47766233  0.19065064  0.08193639    -0.60200
H561        H  0.57682391  0.12837074  0.08446241     0.16700
O562        O  0.58499717  0.12798507  0.14376515    -0.60300
H563        H  0.60391332  0.14477577  0.14337821     0.43700
H564        H  0.48608005  0.21414425  0.07812788     0.43700
C565        C  0.52224468  0.05256967  0.48570544    -0.05400
C566        C  0.54810322  0.03434709  0.50091996    -0.32800
C567        C  0.54805107  0.99868918  0.50185929     0.36400
C568        C  0.52155878  0.98014671  0.48762301    -0.05800
C569        C  0.49616583  0.99902311  0.97277599    -0.32700
C570        C  0.49690142  0.03499759  0.97154181     0.36300
H571        H  0.56852061  0.04786171  0.51247708     0.16700
O572        O  0.57359429  0.98225843  0.51773116    -0.60200
H573        H  0.47563566  0.98553899  0.96136682     0.16700
O574        O  0.47270014  0.05216667  0.95462772    -0.60300
H575        H  0.45182389  0.05238947  0.96750641     0.43700
H576        H  0.59328509  0.98140710  0.50336184     0.43700
C577        C  0.19826506  0.59513563  0.25254853    -0.05400
C578        C  0.21665720  0.61483091  0.27372934    -0.32800
C579        C  0.25246243  0.61429410  0.27385527     0.36400
C580        C  0.27040922  0.59458005  0.25199640    -0.05800
C581        C  0.25196582  0.57502977  0.23067309    -0.32700
C582        C  0.21613973  0.57484489  0.23111460     0.36300
H583        H  0.20320349  0.63046314  0.29041935     0.16700
O584        O  0.26969064  0.63356199  0.29509445    -0.60200
H585        H  0.26539004  0.55960600  0.21381845     0.16700
O586        O  0.19884804  0.55525982  0.21015047    -0.60300
H587        H  0.19394735  0.57078370  0.19263949     0.43700
H588        H  0.26901796  0.65722762  0.28695231     0.43700
C589        C  0.20119005  0.59881729  0.50264243    -0.05400
C590        C  0.21791015  0.56796848  0.49522077    -0.32800
C591        C  0.25361083  0.56585745  0.49499361     0.36400
C592        C  0.27315155  0.59450293  0.50292553    -0.05800
C593        C  0.25533331  0.62226701  0.01799985    -0.32700
C594        C  0.21959311  0.62436781  0.01775078     0.36300
H595        H  0.20331062  0.54543707  0.48930786     0.16700
O596        O  0.26918865  0.53548879  0.48768256    -0.60200
H597        H  0.26992306  0.64209710  0.02932729     0.16700
O598        O  0.20383538  0.65120071  0.03238418    -0.60300
H599        H  0.20377186  0.67012214  0.01718757     0.43700
H600        H  0.27386128  0.53696605  0.46530200     0.43700
C601        C  0.09593443  0.60001205  0.34559088    -0.05400
C602        C  0.09722734  0.56896525  0.36177077    -0.32800
C603        C  0.09730807  0.56835589  0.39392385     0.36400
C604        C  0.09663385  0.59921842  0.41065650    -0.05800
C605        C  0.09511329  0.63026706  0.39447416    -0.32700
C606        C  0.09477265  0.63089140  0.36235075     0.36300
H607        H  0.09819984  0.54496619  0.34947158     0.16700
O608        O  0.09841841  0.53739864  0.40864144    -0.60200
H609        H  0.09421728  0.65436536  0.40671788     0.16700
O610        O  0.09289661  0.66191618  0.34771610    -0.60300
H611        H  0.11684738  0.66998433  0.34633356     0.43700
H612        H  0.07416931  0.53157663  0.41266432     0.43700
C613        C  0.09495721  0.59953081  0.16069554    -0.05400
C614        C  0.11106942  0.62634614  0.14497391    -0.32800
C615        C  0.11184097  0.62711073  0.11285397     0.36400
C616        C  0.09672568  0.60049554  0.09588130    -0.05800
C617        C  0.08046537  0.57374069  0.11156794    -0.32700
C618        C  0.07915834  0.57330817  0.14371857     0.36300
H619        H  0.12345558  0.64668450  0.15761545     0.16700
O620        O  0.12862793  0.65327786  0.09833463    -0.60200
H621        H  0.06801328  0.55349203  0.09885874     0.16700
O622        O  0.06069017  0.54829418  0.15821471    -0.60300
H623        H  0.07632902  0.52839650  0.15970295     0.43700
H624        H  0.11200952  0.67248883  0.09775304     0.43700
C625        C  0.71473664  0.60953498  0.25166784    -0.05400
C626        C  0.69791414  0.62607096  0.22735518    -0.32800
C627        C  0.66216874  0.62579256  0.22543412     0.36400
C628        C  0.64281371  0.60967627  0.24857101    -0.05800
C629        C  0.65980221  0.59331186  0.27298344    -0.32700
C630        C  0.69551328  0.59277223  0.27440595     0.36300
H631        H  0.71257162  0.63866428  0.20951673     0.16700
O632        O  0.64644648  0.64146797  0.20099124    -0.60200
H633        H  0.64534504  0.58042098  0.29078201     0.16700
O634        O  0.71141169  0.57596548  0.29816624    -0.60300
H635        H  0.71308992  0.59303704  0.31494509     0.43700
H636        H  0.64392782  0.66574888  0.20713566     0.43700
C637        C  0.92019732  0.60484871  0.25436693    -0.05400
C638        C  0.93881457  0.63518593  0.25067257    -0.32800
C639        C  0.97459455  0.63487838  0.25054593     0.36400
C640        C  0.99262643  0.60374663  0.25392812    -0.05800
C641        C  0.97397849  0.57344564  0.25790254    -0.32700
C642        C  0.93823328  0.57377528  0.25815514     0.36300
H643        H  0.92562793  0.65937119  0.24768820     0.16700
O644        O  0.99153124  0.66517701  0.24655866    -0.60200
H645        H  0.98710351  0.54922704  0.26089932     0.16700
O646        O  0.92133438  0.54357137  0.26281094    -0.60300
H647        H  0.91712885  0.53436781  0.24192055     0.43700
H648        H  0.99393754  0.67485598  0.26752201     0.43700
C649        C  0.64518755  0.60458712  0.50226693    -0.05400
C650        C  0.66212464  0.58485668  0.02200155    -0.32800
C651        C  0.69783128  0.58526618  0.02290513     0.36400
C652        C  0.71718658  0.60575700  0.50391260    -0.05800
C653        C  0.69917336  0.62761849  0.48401318    -0.32700
C654        C  0.66339060  0.62686988  0.48284829     0.36300
H655        H  0.64842846  0.56763603  0.03711038     0.16700
O656        O  0.71465135  0.56396060  0.04295148    -0.60200
H657        H  0.71291236  0.64479481  0.46889995     0.16700
O658        O  0.64647548  0.64816564  0.46286109    -0.60300
H659        H  0.64002227  0.66848099  0.47524528     0.43700
H660        H  0.71934196  0.57811996  0.06137318     0.43700
C661        C  0.81753252  0.60829604  0.34591985    -0.05400
C662        C  0.81195724  0.57765425  0.36186207    -0.32800
C663        C  0.81269709  0.57659282  0.39393992     0.36400
C664        C  0.81873835  0.60666719  0.41093287    -0.05800
C665        C  0.82432218  0.63739663  0.39501956    -0.32700
C666        C  0.82378422  0.63840667  0.36284847     0.36300
H667        H  0.80682140  0.55431978  0.34941878     0.16700
O668        O  0.80696951  0.54599522  0.40835033    -0.60200
H669        H  0.82935743  0.66079703  0.40750191     0.16700
O670        O  0.83040176  0.66878368  0.34829279    -0.60300
H671        H  0.80819557  0.68110195  0.34781741     0.43700
H672        H  0.83008379  0.53664313  0.41266966     0.43700
C673        C  0.81867158  0.60738568  0.09582093    -0.05400
C674        C  0.82528958  0.63773592  0.11189345    -0.32800
C675        C  0.82531055  0.63835796  0.14404249     0.36400
C676        C  0.81828171  0.60827530  0.16083784    -0.05800
C677        C  0.81139599  0.57803752  0.14473793    -0.32700
C678        C  0.81145904  0.57738026  0.11259910     0.36300
H679        H  0.83082036  0.66112245  0.09952648     0.16700
O680        O  0.83213915  0.66861380  0.15867856    -0.60200
H681        H  0.80545636  0.55485278  0.15714793     0.16700
O682        O  0.80409477  0.54729396  0.09791502    -0.60300
H683        H  0.77892644  0.54744910  0.09519129     0.43700
H684        H  0.85733258  0.66900977  0.16117233     0.43700
C685        C  0.99523563  0.60292793  0.50330269    -0.05400
C686        C  0.97709390  0.63516051  0.00605865    -0.32800
C687        C  0.94132440  0.63698802  0.00570410     0.36400
C688        C  0.92288073  0.60511752  0.50319237    -0.05800
C689        C  0.94042988  0.57421472  0.49821463    -0.32700
C690        C  0.97615343  0.57293737  0.49811609     0.36300
H691        H  0.99140765  0.65849653  0.00944800     0.16700
O692        O  0.92583174  0.66818293  0.00969872    -0.60200
H693        H  0.92643062  0.55084409  0.49411415     0.16700
O694        O  0.99203134  0.54216192  0.49287572    -0.60300
H695        H  0.99430071  0.54049665  0.47020385     0.43700
H696        H  0.92461370  0.67836110  0.98882488     0.43700
C697        C  0.39590985  0.25335080  0.26175166    -0.05400
C698        C  0.37193062  0.27145364  0.27953179    -0.32800
C699        C  0.36974467  0.30720121  0.27791938     0.36400
C700        C  0.39113402  0.32547941  0.25768871    -0.05800
C701        C  0.41505783  0.30741715  0.23984222    -0.32700
C702        C  0.41779956  0.27169354  0.24200395     0.36300
H703        H  0.35487736  0.25782049  0.29483616     0.16700
O704        O  0.34616897  0.32397687  0.29583495    -0.60200
H705        H  0.43189686  0.32108257  0.22437634     0.16700
O706        O  0.44145296  0.25491542  0.22419746    -0.60300
H707        H  0.42929573  0.24919577  0.20487913     0.43700
H708        H  0.32553827  0.32630203  0.28274027     0.43700
C709        C  0.39689802  0.24999781  0.50797972    -0.05400
C710        C  0.37367068  0.26472880  0.48713455    -0.32800
C711        C  0.37035644  0.30029493  0.48460212     0.36400
C712        C  0.38779067  0.32310108  0.00747876    -0.05800
C713        C  0.41251889  0.30784928  0.02655416    -0.32700
C714        C  0.41601796  0.27213511  0.02791737     0.36300
H715        H  0.35799974  0.24853841  0.47271005     0.16700
O716        O  0.34742603  0.31372788  0.46397694    -0.60200
H717        H  0.42945347  0.32368789  0.04009937     0.16700
O718        O  0.44026947  0.25797930  0.04685171    -0.60300
H719        H  0.46179523  0.25840085  0.03479350     0.43700
H720        H  0.32571487  0.31613992  0.47557997     0.43700
C721        C  0.40010594  0.14787736  0.42027188    -0.05400
C722        C  0.42774233  0.13418432  0.40367564    -0.32800
C723        C  0.42751159  0.13409443  0.37145068     0.36400
C724        C  0.39966380  0.14849356  0.35533897    -0.05800
C725        C  0.37219404  0.16234339  0.37195899    -0.32700
C726        C  0.37223653  0.16213761  0.40410277     0.36300
H727        H  0.44921061  0.12279147  0.41568993     0.16700
O728        O  0.45429427  0.11926134  0.35597681    -0.60200
H729        H  0.35073445  0.17382919  0.35998942     0.16700
O730        O  0.34555588  0.17730018  0.41948355    -0.60300
H731        H  0.32713358  0.15997037  0.41974214     0.43700
H732        H  0.44749589  0.09512207  0.35285018     0.43700
C733        C  0.39504160  0.14662701  0.10551258    -0.05400
C734        C  0.36614965  0.15868732  0.12138025    -0.32800
C735        C  0.36551811  0.15950529  0.15355555     0.36400
C736        C  0.39441168  0.14877574  0.17045282    -0.05800
C737        C  0.42298511  0.13596105  0.15455487    -0.32700
C738        C  0.42317506  0.13418380  0.12245226     0.36300
H739        H  0.34407786  0.16799234  0.10881803     0.16700
O740        O  0.33698599  0.17200918  0.16812360    -0.60200
H741        H  0.44511196  0.12665642  0.16705451     0.16700
O742        O  0.45075294  0.11962117  0.10794531    -0.60300
H743        H  0.44492354  0.09510379  0.10571996     0.43700
H744        H  0.32126326  0.15226892  0.16976064     0.43700
C745        C  0.38487220  0.76970583  0.25863431    -0.05400
C746        C  0.35895851  0.75295263  0.27502990    -0.32800
C747        C  0.35450415  0.71757938  0.27231885     0.36400
C748        C  0.37549013  0.69850215  0.25233700    -0.05800
C749        C  0.40113537  0.71525407  0.23559553    -0.32700
C750        C  0.40614492  0.75055909  0.23886587     0.36300
H751        H  0.34227706  0.76731378  0.29022424     0.16700
O752        O  0.32945295  0.70186353  0.28918462    -0.60200
H753        H  0.41784793  0.70079270  0.22050790     0.16700
O754        O  0.43147979  0.76617188  0.22226230    -0.60300
H755        H  0.42090312  0.77180492  0.20216290     0.43700
H756        H  0.30816122  0.70531729  0.27719819     0.43700
C757        C  0.39668366  0.97502063  0.26150946    -0.05400
C758        C  0.37184677  0.99349592  0.24508763    -0.32800
C759        C  0.37182696  0.02927976  0.24500081     0.36400
C760        C  0.39702418  0.04726163  0.26144024    -0.05800
C761        C  0.42211354  0.02879331  0.27762534    -0.32700
C762        C  0.42192437  0.99292751  0.27793049     0.36300
H763        H  0.35242474  0.98011265  0.23210358     0.16700
O764        O  0.34785535  0.04641891  0.22780669    -0.60200
H765        H  0.44141545  0.04221133  0.29071883     0.16700
O766        O  0.44494595  0.97569503  0.29606144    -0.60300
H767        H  0.46641114  0.97489343  0.28401224     0.43700
H768        H  0.32691769  0.04682020  0.24067294     0.43700
C769        C  0.38627885  0.76653403  0.50821507    -0.05400
C770        C  0.36389132  0.75039618  0.02877329    -0.32800
C771        C  0.36068187  0.71480050  0.02753953     0.36400
C772        C  0.37857913  0.69494094  0.50453868    -0.05800
C773        C  0.40043756  0.71212754  0.48416087    -0.32700
C774        C  0.40486814  0.74760235  0.48627070     0.36300
H775        H  0.34921010  0.76460661  0.04565271     0.16700
O776        O  0.33881353  0.69879598  0.04752793    -0.60200
H777        H  0.41472347  0.69790977  0.46702107     0.16700
O778        O  0.42621174  0.76371988  0.46591042    -0.60300
H779        H  0.44944192  0.76112661  0.47474039     0.43700
H780        H  0.35195324  0.69604269  0.06688155     0.43700
C781        C  0.39316094  0.87202694  0.41927386    -0.05400
C782        C  0.37002993  0.85152381  0.40303998    -0.32800
C783        C  0.36949878  0.85157249  0.37085733     0.36400
C784        C  0.39254390  0.87209479  0.35432408    -0.05800
C785        C  0.41552316  0.89290235  0.37047511    -0.32700
C786        C  0.41577349  0.89322037  0.40282815     0.36300
H787        H  0.35253518  0.83505173  0.41537655     0.16700
O788        O  0.34735297  0.83033137  0.35573383    -0.60200
H789        H  0.43281351  0.90946191  0.35798915     0.16700
O790        O  0.43628692  0.91590320  0.41825233    -0.60300
H791        H  0.45988362  0.91175211  0.41080033     0.43700
H792        H  0.32553685  0.84325824  0.35447629     0.43700
C793        C  0.39022238  0.86960165  0.10429416    -0.05400
C794        C  0.41375142  0.84941749  0.12063640    -0.32800
C795        C  0.41427197  0.84972722  0.15288769     0.36400
C796        C  0.39098382  0.87044514  0.16925349    -0.05800
C797        C  0.36717773  0.89028209  0.15292524    -0.32700
C798        C  0.36687009  0.89022947  0.12072729     0.36300
H799        H  0.43168230  0.83319109  0.10839439     0.16700
O800        O  0.43662698  0.82867700  0.16824704    -0.60200
H801        H  0.34923270  0.90648941  0.16517420     0.16700
O802        O  0.34413189  0.91104031  0.10557300    -0.60300
H803        H  0.35665381  0.93265350  0.10187634     0.43700
H804        H  0.45966251  0.83813970  0.16423823     0.43700
C805        C  0.39702001  0.97190159  0.51317199    -0.05400
C806        C  0.42398436  0.99005690  0.02272388    -0.32800
C807        C  0.42532553  0.02586899  0.02328668     0.36400
C808        C  0.39988413  0.04422128  0.51399898    -0.05800
C809        C  0.37066043  0.02732461  0.50332599    -0.32700
C810        C  0.36909469  0.99168909  0.50269332     0.36300
H811        H  0.44600707  0.97560006  0.03056717     0.16700
O812        O  0.45428703  0.04147949  0.03400431    -0.60200
H813        H  0.34890157  0.04182239  0.49496578     0.16700
O814        O  0.34006596  0.97657883  0.49153286    -0.60300
H815        H  0.34426234  0.97353405  0.46919749     0.43700
H816        H  0.45024964  0.04495413  0.05630584     0.43700
O817        O  0.41908979  0.86320272  0.55564291    -0.71700
O818        O  0.41887641  0.87325028  0.96834392    -0.71900
O819        O  0.42229467  0.91594891  0.51583744    -0.71800
O820        O  0.41653601  0.82050772  0.00804414    -0.71800
O821        O  0.36219784  0.82212897  0.51310997    -0.71800
O822        O  0.36518456  0.91963036  0.00993827    -0.71800
O823        O  0.36349420  0.86944007  0.96801111    -0.71700
O824        O  0.36430815  0.87230972  0.55515229    -0.71900
V825        V  0.41890257  0.86756883  0.51198110     1.35200
V826        V  0.36427966  0.87126442  0.01167778     1.35200
C827        C  0.39148303  0.86770127  0.57034771     0.77500
C828        C  0.39126314  0.87203009  0.95329126     0.77600
C829        C  0.39328413  0.93515459  0.01272316     0.77500
C830        C  0.38820218  0.80519511  0.01017171     0.77400
O831        O  0.36605978  0.92282957  0.76148393    -0.71700
O832        O  0.36247187  0.82596546  0.76241476    -0.71900
O833        O  0.36414357  0.87454850  0.80555971    -0.71800
O834        O  0.36443808  0.87387835  0.71824381    -0.71800
O835        O  0.41991782  0.87137948  0.71831821    -0.71800
O836        O  0.41964757  0.87242081  0.80580058    -0.71800
O837        O  0.41798010  0.82338554  0.76187797    -0.71700
O838        O  0.42153576  0.92063564  0.76218544    -0.71900
V839        V  0.36539085  0.87430460  0.76193003     1.35200
V840        V  0.41872016  0.87205110  0.76205544     1.35200
C841        C  0.39435830  0.93828890  0.76206058     0.77500
C842        C  0.38950545  0.80819999  0.76181799     0.77600
C843        C  0.39179553  0.87348474  0.82054523     0.77500
C844        C  0.39217624  0.87184121  0.70339508     0.77400
O845        O  0.42486062  0.09994002  0.01272280    -0.71700
O846        O  0.42640256  0.19631055  0.51309099    -0.71900
O847        O  0.42646229  0.14701472  0.55675817    -0.71800
O848        O  0.42476479  0.14949681  0.96957317    -0.71800
O849        O  0.36930564  0.14782918  0.96914728    -0.71800
O850        O  0.37100794  0.14854482  0.55603484    -0.71800
O851        O  0.36785690  0.19644050  0.01198329    -0.71700
O852        O  0.37236779  0.09862504  0.51379445    -0.71900
V853        V  0.42307551  0.14858816  0.01332483     1.35200
V854        V  0.36975740  0.14807717  0.01270213     1.35200
C855        C  0.39726431  0.08319910  0.01305614     0.77500
C856        C  0.39518990  0.21348102  0.01273523     0.77600
C857        C  0.39848533  0.14758037  0.57130638     0.77500
C858        C  0.39714149  0.14907134  0.95444895     0.77400
O859        O  0.36846904  0.15258982  0.71936946    -0.71700
O860        O  0.36916760  0.15059823  0.80675972    -0.71900
O861        O  0.36873397  0.20009575  0.76396928    -0.71800
O862        O  0.36861399  0.10310223  0.76200560    -0.71800
O863        O  0.42403337  0.10251446  0.76461463    -0.71800
O864        O  0.42411388  0.19997380  0.76031987    -0.71800
O865        O  0.42459748  0.15285116  0.80619542    -0.71700
O866        O  0.42384238  0.14888840  0.71904646    -0.71900
V867        V  0.36981348  0.15159360  0.76304907     1.35200
V868        V  0.42311137  0.15116713  0.76260573     1.35200
C869        C  0.39605432  0.15037096  0.70428621     0.77500
C870        C  0.39709270  0.15140921  0.82139551     0.77600
C871        C  0.39628431  0.21662380  0.76152267     0.77500
C872        C  0.39620849  0.08621137  0.76321480     0.77400
O873        O  0.77127537  0.63348571  0.50266924    -0.71700
O874        O  0.86721059  0.63528275  0.00372876    -0.71900
O875        O  0.81907553  0.63543235  0.95965434    -0.71800
O876        O  0.81901562  0.63249128  0.54733638    -0.71800
O877        O  0.82149704  0.57706708  0.54669655    -0.71800
O878        O  0.81698210  0.58004022  0.95991105    -0.71800
O879        O  0.86837731  0.57773415  0.50173664    -0.71700
O880        O  0.77033355  0.58005452  0.00500174    -0.71900
V881        V  0.81861821  0.63437010  0.00325733     1.35200
V882        V  0.81873665  0.58106435  0.00336864     1.35200
C883        C  0.75369187  0.60776892  0.00374829     0.77500
C884        C  0.88385875  0.60751994  0.00249035     0.77600
C885        C  0.81761594  0.60766493  0.94486332     0.77500
C886        C  0.82040767  0.60451573  0.56192529     0.77400
O887        O  0.86550763  0.63438932  0.75526040    -0.71700
O888        O  0.76855522  0.63402712  0.75028432    -0.71900
O889        O  0.81431451  0.63517385  0.79638189    -0.71800
O890        O  0.81973353  0.63352557  0.70953331    -0.71800
O891        O  0.81707095  0.57815095  0.71010995    -0.71800
O892        O  0.81762405  0.57982364  0.79738987    -0.71800
O893        O  0.76891333  0.57863078  0.75429897    -0.71700
O894        O  0.86576454  0.57899966  0.75352824    -0.71900
V895        V  0.81701037  0.63322308  0.75291761     1.35200
V896        V  0.81733878  0.57993792  0.75379398     1.35200
C897        C  0.88228048  0.60666088  0.75467853     0.77500
C898        C  0.75228340  0.60624050  0.75193330     0.77600
C899        C  0.81562718  0.60783787  0.81181687     0.77500
C900        C  0.81893030  0.60568598  0.69490213     0.77400
O901        O  0.04830116  0.57464827  0.00285747    -0.71700
O902        O  0.14623945  0.57276221  0.50345035    -0.71900
O903        O  0.09819384  0.57532299  0.54756986    -0.71800
O904        O  0.09723946  0.57386493  0.95979747    -0.71800
O905        O  0.09783425  0.62929304  0.96021058    -0.71800
O906        O  0.09876254  0.63072748  0.54601580    -0.71800
O907        O  0.14648175  0.62762776  0.00376187    -0.71700
O908        O  0.04999713  0.62997516  0.50275387    -0.71900
V909        V  0.09680864  0.57448032  0.00334683     1.35200
V910        V  0.09794042  0.62778357  0.00375475     1.35200
C911        C  0.03220870  0.60274995  0.00302369     0.77500
C912        C  0.16246913  0.59946754  0.00368430     0.77600
C913        C  0.09831703  0.60358561  0.56173625     0.77500
C914        C  0.09749370  0.60172477  0.94507670     0.77400
O915        O  0.14336113  0.57587307  0.75161578    -0.71700
O916        O  0.04662667  0.57918033  0.75527389    -0.71900
O917        O  0.09311916  0.57780275  0.71007818    -0.71800
O918        O  0.09685817  0.57750555  0.79703253    -0.71800
O919        O  0.09570417  0.63294017  0.79713360    -0.71800
O920        O  0.09740819  0.63304359  0.70982599    -0.71800
O921        O  0.04791461  0.63453004  0.75290190    -0.71700
O922        O  0.14517744  0.63127616  0.75447468    -0.71900
V923        V  0.09500519  0.57868264  0.75351323     1.35200
V924        V  0.09651644  0.63193674  0.75355189     1.35200
C925        C  0.16079713  0.60293104  0.75284838     0.77500
C926        C  0.03062423  0.60730729  0.75436612     0.77600
C927        C  0.09536767  0.60531192  0.69499519     0.77500
C928        C  0.09645415  0.60519290  0.81201949     0.77400
O929        O  0.55965502  0.20158229  0.49065139    -0.71700
O930        O  0.55417253  0.10548389  0.98696632    -0.71900
O931        O  0.55834376  0.15509321  0.94460258    -0.71800
O932        O  0.55492757  0.15127908  0.53196222    -0.71800
O933        O  0.49966628  0.15656618  0.53096014    -0.71800
O934        O  0.50297980  0.15936722  0.94381348    -0.71800
O935        O  0.49735615  0.10891051  0.48558286    -0.71700
O936        O  0.50550649  0.20632136  0.98853091    -0.71900
V937        V  0.55646214  0.15388106  0.98819678     1.35200
V938        V  0.50325207  0.15784161  0.98748170     1.35200
C939        C  0.53432457  0.22075977  0.98974421     0.77500
C940        C  0.52543953  0.09082796  0.98606736     0.77600
C941        C  0.53097529  0.15766293  0.92933423     0.77500
C942        C  0.52701484  0.15409191  0.54637406     0.77400
O943        O  0.55384663  0.10872109  0.73894820    -0.71700
O944        O  0.56206192  0.20524558  0.73687881    -0.71900
O945        O  0.55844062  0.15785328  0.78147578    -0.71800
O946        O  0.55732590  0.15563364  0.69415786    -0.71800
O947        O  0.50228852  0.16293070  0.69456268    -0.71800
O948        O  0.50298554  0.16107657  0.78194480    -0.71800
O949        O  0.50681727  0.21021830  0.73960126    -0.71700
O950        O  0.49856828  0.11324693  0.73737991    -0.71900
V951        V  0.55683557  0.15699987  0.73781880     1.35200
V952        V  0.50370297  0.16174475  0.73828603     1.35200
C953        C  0.52494624  0.09440658  0.73841078     0.77500
C954        C  0.53590630  0.22419920  0.73896747     0.77600
C955        C  0.53087206  0.15978816  0.79658455     0.77500
C956        C  0.52963621  0.15887680  0.67943000     0.77400
O957        O  0.49483677  0.92547436  0.98609115    -0.71700
O958        O  0.49979623  0.82736625  0.49519586    -0.71900
O959        O  0.49698864  0.88094224  0.53381814    -0.71800
O960        O  0.49637259  0.87195130  0.94693032    -0.71800
O961        O  0.55133485  0.87926146  0.94674446    -0.71800
O962        O  0.55236348  0.87723871  0.53397304    -0.71800
O963        O  0.55284439  0.82971635  0.98941802    -0.71700
O964        O  0.55020599  0.92645636  0.49111504    -0.71900
V965        V  0.49712917  0.87679784  0.99042204     1.35200
V966        V  0.55031068  0.87805126  0.99037881     1.35200
C967        C  0.52215731  0.94260000  0.98835729     0.77500
C968        C  0.52594621  0.81238709  0.99285219     0.77600
C969        C  0.52464022  0.87961075  0.54883491     0.77500
C970        C  0.52387023  0.87517983  0.93190539     0.81400
O971        O  0.49652227  0.83171204  0.74053513    -0.71700
O972        O  0.49435254  0.92928530  0.74090020    -0.71900
O973        O  0.49520179  0.88134171  0.69688682    -0.71800
O974        O  0.49555624  0.87972760  0.78429202    -0.71800
O975        O  0.55104917  0.88099757  0.78397191    -0.71800
O976        O  0.55069067  0.88183032  0.69670963    -0.71800
O977        O  0.54979677  0.92980932  0.74080185    -0.71700
O978        O  0.55203648  0.83292758  0.73984315    -0.71900
V979        V  0.49644683  0.88052074  0.74060272     1.35200
V980        V  0.54977161  0.88138849  0.74033425     1.35200
C981        C  0.52476329  0.81576033  0.74047326     0.77500
C982        C  0.52187606  0.94618690  0.74103329     0.77600
C983        C  0.52290429  0.88194643  0.68189151     0.77500
C984        C  0.52340876  0.88001111  0.79901961     0.77400
O985        O  0.33190642  0.42077334  0.52693128    -0.71700
O986        O  0.42899825  0.42883326  0.52626624    -0.71900
O987        O  0.37640911  0.47315089  0.52611898    -0.71800
O988        O  0.38528435  0.37645963  0.52742561    -0.71800
O989        O  0.38262673  0.37609259  0.98054030    -0.71800
O990        O  0.37554277  0.47329413  0.97736882    -0.71800
O991        O  0.42733700  0.42814860  0.97785935    -0.71700
O992        O  0.33088810  0.42103725  0.97963839    -0.71900
V993        V  0.38053799  0.42475819  0.52573797     1.35200
V994        V  0.37911395  0.42467453  0.97983341     1.35200
C995        C  0.31477727  0.42161522  0.00477922     0.77500
C996        C  0.44442128  0.43003302  0.00242339     0.77600
C997        C  0.37655625  0.48947621  0.50101586     0.77500
C998        C  0.38547073  0.35938136  0.50276754     0.77400
O999        O  0.38815365  0.37962079  0.72747647    -0.71700
O1000       O  0.37720997  0.47684258  0.72392428    -0.71900
O1001       O  0.43074041  0.43308283  0.72513774    -0.71800
O1002       O  0.33442954  0.42302695  0.72580199    -0.71800
O1003       O  0.33414517  0.42923739  0.77546857    -0.71800
O1004       O  0.43118945  0.43180949  0.77513411    -0.71800
O1005       O  0.38079686  0.47868289  0.77377337    -0.71700
O1006       O  0.38413399  0.38194049  0.77726200    -0.71900
V1007       V  0.38260812  0.42820609  0.72649208     1.35200
V1008       V  0.38262238  0.43034076  0.77443902     1.35200
C1009       C  0.38731786  0.36422706  0.75312371     0.77500
C1010       C  0.37751885  0.49426325  0.74849691     0.77600
C1011       C  0.44739817  0.43329364  0.74999010     0.77500
C1012       C  0.31781239  0.42540125  0.75064396     0.77400
O1013       O  0.37557120  0.64012357  0.52795941    -0.71700
O1014       O  0.37589394  0.54320134  0.52625079    -0.71900
O1015       O  0.42428455  0.59197292  0.52642812    -0.71800
O1016       O  0.32722518  0.59202701  0.52751585    -0.71800
O1017       O  0.32601446  0.59428660  0.97786140    -0.71800
O1018       O  0.42292988  0.59322893  0.97686223    -0.71800
O1019       O  0.37402337  0.54495117  0.97674673    -0.71700
O1020       O  0.37557452  0.64250359  0.97846590    -0.71900
V1021       V  0.37573343  0.59174026  0.52604092     1.35200
V1022       V  0.37453480  0.59371581  0.97843621     1.35200
C1023       C  0.37619058  0.65833859  0.00387305     0.77500
C1024       C  0.37443650  0.52814823  0.00163393     0.77600
C1025       C  0.44047190  0.59310000  0.50125935     0.77500
C1026       C  0.31058629  0.59292326  0.50264494     0.77400
O1027       O  0.32424905  0.59790524  0.72646893    -0.71700
O1028       O  0.42132853  0.59795553  0.72440168    -0.71900
O1029       O  0.37323862  0.54905877  0.72390757    -0.71800
O1030       O  0.37343865  0.64669403  0.72733524    -0.71800
O1031       O  0.37390197  0.64429640  0.77727399    -0.71800
O1032       O  0.37439574  0.54760503  0.77386414    -0.71800
O1033       O  0.42243576  0.59614986  0.77437692    -0.71700
O1034       O  0.32537096  0.59639176  0.77643331    -0.71900
V1035       V  0.37290030  0.59786909  0.72646527     1.35200
V1036       V  0.37392469  0.59603135  0.77446684     1.35200
C1037       C  0.30829253  0.59753136  0.75177669     0.77500
C1038       C  0.43831776  0.59751396  0.74907211     0.77600
C1039       C  0.37469670  0.53180331  0.74852356     0.77500
C1040       C  0.37455587  0.66197872  0.75300923     0.77400
O1041       O  0.55038709  0.38256168  0.52114411    -0.71700
O1042       O  0.54664926  0.47975766  0.52380936    -0.71900
O1043       O  0.50003579  0.42928204  0.52445635    -0.71800
O1044       O  0.59696109  0.43318124  0.52051020    -0.71800
O1045       O  0.59361377  0.43134043  0.97075478    -0.71800
O1046       O  0.49677152  0.43524013  0.97557054    -0.71800
O1047       O  0.54698914  0.48197671  0.97448610    -0.71700
O1048       O  0.54280078  0.38516101  0.97179014    -0.71900
V1049       V  0.54849762  0.43122690  0.52154673     1.35200
V1050       V  0.54518334  0.43347733  0.97410363     1.35200
C1051       C  0.54571933  0.36764733  0.99606456     0.77500
C1052       C  0.54658974  0.49768484  0.99989220     0.77600
C1053       C  0.48242847  0.43093051  0.50013054     0.77500
C1054       C  0.61220275  0.43199699  0.49489043     0.77400
O1055       O  0.59777869  0.43927203  0.72312414    -0.71700
O1056       O  0.50088799  0.43371523  0.72432376    -0.71900
O1057       O  0.54627599  0.48470776  0.72449749    -0.71800
O1058       O  0.55222120  0.38794839  0.72272935    -0.71800
O1059       O  0.54836103  0.38660994  0.77258671    -0.71800
O1060       O  0.55078096  0.48401729  0.77432513    -0.71800
O1061       O  0.50151234  0.43645778  0.77427181    -0.71700
O1062       O  0.59857351  0.43371399  0.77284446    -0.71900
V1063       V  0.54934652  0.43637812  0.72462606     1.35200
V1064       V  0.54994872  0.43526654  0.77259937     1.35200
C1065       C  0.61472637  0.43659297  0.74776081     0.77500
C1066       C  0.48474748  0.43468855  0.74952020     0.77600
C1067       C  0.54763647  0.50086262  0.74960282     0.77500
C1068       C  0.54988498  0.37076407  0.74725621     0.77400
O1069       O  0.59080991  0.60175216  0.52646596    -0.71700
O1070       O  0.49415353  0.59618181  0.52599379    -0.71900
O1071       O  0.54535500  0.55055001  0.52535629    -0.71800
O1072       O  0.53908349  0.64793596  0.52663476    -0.71800
O1073       O  0.53836051  0.64854895  0.97576071    -0.71800
O1074       O  0.54504553  0.55190604  0.97569378    -0.71800
O1075       O  0.49321720  0.59689328  0.97610730    -0.71700
O1076       O  0.59018697  0.60373448  0.97584298    -0.71900
V1077       V  0.54242543  0.59918327  0.52514291     1.35200
V1078       V  0.54170058  0.60025503  0.97683783     1.35200
C1079       C  0.60654139  0.60440354  0.00091681     0.77500
C1080       C  0.47693908  0.59554867  0.00123477     0.77600
C1081       C  0.54608058  0.53456640  0.50006235     0.77500
C1082       C  0.53864757  0.66471993  0.50170448     0.77400
O1083       O  0.58863521  0.60721039  0.77319375    -0.71700
O1084       O  0.49218157  0.60017017  0.77340505    -0.71900
O1085       O  0.54445092  0.55532842  0.77427608    -0.71800
O1086       O  0.53608795  0.65258461  0.77189864    -0.71800
O1087       O  0.53810297  0.65106946  0.72197568    -0.71800
O1088       O  0.54309376  0.55425827  0.72430632    -0.71800
O1089       O  0.49192170  0.60031072  0.72339609    -0.71700
O1090       O  0.58898305  0.60495242  0.72324347    -0.71900
V1091       V  0.54036795  0.60388914  0.77222625     1.35200
V1092       V  0.54048580  0.60267057  0.72420617     1.35200
C1093       C  0.60528547  0.60651394  0.74830081     0.77500
C1094       C  0.47563856  0.59922841  0.74852514     0.77600
C1095       C  0.54508829  0.53832384  0.74953644     0.77500
C1096       C  0.53586322  0.66835682  0.74643074     0.77400
O1097       O  0.15130381  0.39387484  0.50000575    -0.71700
O1098       O  0.05396431  0.39392198  0.99559519    -0.71900
O1099       O  0.10294460  0.39320217  0.95234764    -0.71800
O1100       O  0.09929616  0.39461289  0.53976486    -0.71800
O1101       O  0.10411399  0.44986290  0.53922922    -0.71800
O1102       O  0.10405609  0.44864423  0.95225125    -0.71800
O1103       O  0.05432037  0.44939089  0.49658721    -0.71700
O1104       O  0.15141771  0.44826259  0.99721959    -0.71900
V1105       V  0.10286258  0.39495458  0.49633506     1.35200
V1106       V  0.10282500  0.44819861  0.49560085     1.35200
C1107       C  0.16779084  0.42152381  0.49810818     0.77500
C1108       C  0.03771320  0.42182922  0.49432197     0.77600
C1109       C  0.10381454  0.42087203  0.93736811     0.77500
C1110       C  0.10170407  0.42238081  0.55440981     0.77400
O1111       O  0.05667234  0.39705306  0.74656936    -0.71700
O1112       O  0.15391261  0.39523095  0.74454998    -0.71900
O1113       O  0.10645185  0.39584098  0.78920472    -0.71800
O1114       O  0.10416339  0.39614074  0.70211294    -0.71800
O1115       O  0.10931272  0.45136732  0.70216270    -0.71800
O1116       O  0.10301879  0.45119720  0.78930239    -0.71800
O1117       O  0.15441457  0.45056442  0.74879881    -0.71700
O1118       O  0.05779101  0.45233295  0.74285569    -0.71900
V1119       V  0.10532611  0.39707981  0.74563123     1.35200
V1120       V  0.10611220  0.45033247  0.74576029     1.35200
C1121       C  0.04059434  0.42509719  0.74419321     0.77500
C1122       C  0.17067142  0.42266663  0.74708645     0.77600
C1123       C  0.10452902  0.42345584  0.80420334     0.77500
C1124       C  0.10692080  0.42373840  0.68722473     0.77400
O1125       O  0.87318049  0.45460414  0.99094126    -0.71700
O1126       O  0.77670952  0.45713904  0.49313573    -0.71900
O1127       O  0.82678683  0.45604770  0.53513567    -0.71800
O1128       O  0.82341169  0.45664498  0.94836370    -0.71800
O1129       O  0.82455378  0.40118555  0.94782204    -0.71800
O1130       O  0.82249243  0.40075424  0.53555926    -0.71800
O1131       O  0.77479270  0.40207695  0.99018059    -0.71700
O1132       O  0.87233979  0.39885087  0.49296424    -0.71900
V1133       V  0.82468831  0.45493243  0.99199077     1.35200
V1134       V  0.82340898  0.40165195  0.99131248     1.35200
C1135       C  0.88920395  0.42648497  0.99196859     0.77500
C1136       C  0.75901785  0.43029785  0.99197283     0.77600
C1137       C  0.82468716  0.42852572  0.55026847     0.77500
C1138       C  0.82418195  0.42907209  0.93318161     0.77400
O1139       O  0.77975446  0.46147397  0.74022930    -0.71700
O1140       O  0.87684469  0.45714914  0.74291043    -0.71900
O1141       O  0.82991476  0.45894783  0.69801853    -0.71800
O1142       O  0.82669258  0.45960201  0.78523942    -0.71800
O1143       O  0.82800498  0.40413920  0.78548697    -0.71800
O1144       O  0.82423322  0.40379231  0.69842146    -0.71800
O1145       O  0.87465340  0.40179285  0.74046467    -0.71700
O1146       O  0.77773202  0.40613898  0.74405061    -0.71900
V1147       V  0.82828139  0.45826605  0.74161212     1.35200
V1148       V  0.82620583  0.40502485  0.74201434     1.35200
C1149       C  0.76222208  0.43451001  0.74255563     0.77500
C1150       C  0.89236069  0.42871435  0.74182922     0.77600
C1151       C  0.82709391  0.43125615  0.68329189     0.77500
C1152       C  0.82709162  0.43191412  0.80027468     0.77400
C1153       C  0.82481088  0.42946271  0.89918707    -0.05400
C1154       C  0.81615551  0.45957759  0.88339298    -0.32800
C1155       C  0.81674371  0.46082699  0.85125897     0.36400
C1156       C  0.82634259  0.43166178  0.83425889    -0.05800
C1157       C  0.83473455  0.40145173  0.85004579    -0.32700
C1158       C  0.83418021  0.40019886  0.88214924     0.36300
H1159       H  0.80834486  0.48213708  0.89597560     0.16700
O1160       O  0.80747626  0.49057696  0.83676377    -0.60200
H1161       H  0.84211661  0.37866639  0.83749140     0.16700
O1162       O  0.84301575  0.37021511  0.89652355    -0.60300
H1163       H  0.86810209  0.37152890  0.89955411     0.43700
H1164       H  0.78233109  0.48917577  0.83422117     0.43700
C1165       C  0.82510793  0.42893140  0.58428294    -0.05400
C1166       C  0.83847960  0.45740026  0.59973484    -0.32800
C1167       C  0.83964941  0.45839592  0.63187340     0.36400
C1168       C  0.82682515  0.43083704  0.64926142    -0.05800
C1169       C  0.81347567  0.40237422  0.63380049    -0.32700
C1170       C  0.81272040  0.40116138  0.60165534     0.36300
H1171       H  0.84867583  0.47878740  0.58686432     0.16700
O1172       O  0.85476082  0.48578503  0.64593426    -0.60200
H1173       H  0.80331366  0.38096792  0.64665873     0.16700
O1174       O  0.79875852  0.37316330  0.58753995    -0.60300
H1175       H  0.81730346  0.35579831  0.58712692     0.43700
H1176       H  0.83605980  0.50254030  0.64896443     0.43700
C1177       C  0.00267210  0.42605585  0.74307730    -0.05400
C1178       C  0.98388312  0.39689992  0.75129181    -0.32800
C1179       C  0.94806505  0.39731293  0.75100727     0.36400
C1180       C  0.93024426  0.42718072  0.74215405    -0.05800
C1181       C  0.94902011  0.45620153  0.73372356    -0.32700
C1182       C  0.98478231  0.45581670  0.73395186     0.36300
H1183       H  0.99696167  0.37374478  0.75840754     0.16700
O1184       O  0.93083313  0.36846587  0.75983284    -0.60200
H1185       H  0.93592390  0.47925225  0.72646305     0.16700
O1186       O  0.00187308  0.48472106  0.72504059    -0.60300
H1187       H  0.00490746  0.48241753  0.70248417     0.43700
H1188       H  0.92692543  0.37118134  0.78224408     0.43700
C1189       C  0.10425105  0.42100492  0.90331747    -0.05400
C1190       C  0.09779006  0.45168160  0.88758823    -0.32800
C1191       C  0.09760781  0.45292079  0.85546919     0.36400
C1192       C  0.10426579  0.42308265  0.83826981    -0.05800
C1193       C  0.11087950  0.39234990  0.85399393    -0.32700
C1194       C  0.11082044  0.39109959  0.88616196     0.36300
H1195       H  0.09238315  0.47482716  0.90025783     0.16700
O1196       O  0.09094463  0.48350697  0.84122821    -0.60200
H1197       H  0.11632577  0.36909656  0.84135373     0.16700
O1198       O  0.11821241  0.36070538  0.90048443    -0.60300
H1199       H  0.09629781  0.34806947  0.90099401     0.43700
H1200       H  0.06566529  0.48530587  0.84044168     0.43700
C1201       C  0.10255692  0.42264002  0.58838194    -0.05400
C1202       C  0.11653341  0.45083004  0.60381348    -0.32800
C1203       C  0.11899138  0.45116892  0.63589723     0.36400
C1204       C  0.10646632  0.42348276  0.65323647    -0.05800
C1205       C  0.09273430  0.39519560  0.63778969    -0.32700
C1206       C  0.09068885  0.39460358  0.60571377     0.36300
H1207       H  0.12637322  0.47239380  0.59095618     0.16700
O1208       O  0.13438779  0.47836506  0.64996917    -0.60200
H1209       H  0.08303199  0.37355634  0.65062326     0.16700
O1210       O  0.07680743  0.36653357  0.59164605    -0.60300
H1211       H  0.05212520  0.37189827  0.58946951     0.43700
H1212       H  0.15877634  0.47173275  0.65202405     0.43700
C1213       C  0.99978308  0.42235382  0.49345024    -0.05400
C1214       C  0.98227186  0.45234090  0.50190646    -0.32800
C1215       C  0.94655015  0.45387378  0.50158352     0.36400
C1216       C  0.92742825  0.42517521  0.49236908    -0.05800
C1217       C  0.94443712  0.39434429  0.98830981    -0.32700
C1218       C  0.98020541  0.39258869  0.98918897     0.36300
H1219       H  0.99630968  0.47466970  0.50929067     0.16700
O1220       O  0.93065602  0.48346561  0.51078938    -0.60200
H1221       H  0.93022996  0.37117821  0.98379060     0.16700
O1222       O  0.99589064  0.36170042  0.98402720    -0.60300
H1223       H  0.99660960  0.35029684  0.00440028     0.43700
H1224       H  0.92719847  0.48086540  0.53326980     0.43700
C1225       C  0.65247075  0.43660798  0.74709292    -0.05400
C1226       C  0.66976873  0.45819951  0.72653922    -0.32800
C1227       C  0.70556620  0.45825137  0.72518533     0.36400
C1228       C  0.72455641  0.43589030  0.74404195    -0.05800
C1229       C  0.70725175  0.41416187  0.76443131    -0.32700
C1230       C  0.67152483  0.41463823  0.76627391     0.36300
H1231       H  0.65547439  0.47526354  0.71164467     0.16700
O1232       O  0.72167985  0.47976391  0.70496515    -0.60200
H1233       H  0.72152394  0.39690444  0.77916780     0.16700
O1234       O  0.65547465  0.39301471  0.78644044    -0.60300
H1235       H  0.65128657  0.37178192  0.77459695     0.43700
H1236       H  0.72526376  0.46602808  0.68606010     0.43700
C1237       C  0.64979189  0.43184003  0.49348498    -0.05400
C1238       C  0.66798478  0.45135274  0.01490974    -0.32800
C1239       C  0.70376269  0.45149688  0.01419712     0.36400
C1240       C  0.72138104  0.43148618  0.99240596    -0.05800
C1241       C  0.70322284  0.40857533  0.47383800    -0.32700
C1242       C  0.66744248  0.40914961  0.47393096     0.36300
H1243       H  0.65480381  0.46637999  0.03220825     0.16700
O1244       O  0.72130367  0.47000219  0.03578131    -0.60200
H1245       H  0.71650078  0.39071799  0.45893883     0.16700
O1246       O  0.64998081  0.38697955  0.45529952    -0.60300
H1247       H  0.64512625  0.36678652  0.46837349     0.43700
H1248       H  0.72223616  0.49358079  0.02744833     0.43700
C1249       C  0.28022457  0.42410074  0.75050977    -0.05400
C1250       C  0.26346082  0.40149173  0.73059790    -0.32800
C1251       C  0.22772271  0.40009217  0.72983295     0.36400
C1252       C  0.20829210  0.42241866  0.74832912    -0.05800
C1253       C  0.22508875  0.44537840  0.76790523    -0.32700
C1254       C  0.26078988  0.44591635  0.76948928     0.36300
H1255       H  0.27812862  0.38466309  0.71578047     0.16700
O1256       O  0.21205637  0.37803054  0.70986175    -0.60200
H1257       H  0.21046405  0.46277839  0.78222062     0.16700
O1258       O  0.27644788  0.46903942  0.78848489    -0.60300
H1259       H  0.27698625  0.45795041  0.80899874     0.43700
H1260       H  0.21090598  0.35593468  0.72099884     0.43700
C1261       C  0.27724252  0.42021609  0.00471528    -0.05400
C1262       C  0.25874825  0.40519653  0.52458106    -0.32800
C1263       C  0.22290094  0.40474703  0.52367190     0.36400
C1264       C  0.20536111  0.42170003  0.49979949    -0.05800
C1265       C  0.22207041  0.44606211  0.01587789    -0.32700
C1266       C  0.25770345  0.44605208  0.01882894     0.36300
H1267       H  0.27192047  0.39204967  0.54306946     0.16700
O1268       O  0.20523419  0.38797648  0.54634100    -0.60200
H1269       H  0.20740997  0.46649887  0.02642326     0.16700
O1270       O  0.27331294  0.47241085  0.03404776    -0.60300
H1271       H  0.27438097  0.46503349  0.05585167     0.43700
H1272       H  0.19989668  0.40568755  0.56195976     0.43700
C1273       C  0.52633668  0.77799381  0.74148836    -0.05400
C1274       C  0.55033890  0.76067462  0.72317250    -0.32800
C1275       C  0.55346333  0.72501889  0.72452912     0.36400
C1276       C  0.53299270  0.70606401  0.74498607    -0.05800
C1277       C  0.50921999  0.72338780  0.76359686    -0.32700
C1278       C  0.50558709  0.75906671  0.76175483     0.36300
H1279       H  0.56665712  0.77486158  0.70762517     0.16700
O1280       O  0.57708056  0.70897631  0.70614801    -0.60200
H1281       H  0.49313683  0.70917796  0.77931538     0.16700
O1282       O  0.48223921  0.77523593  0.78033068    -0.60300
H1283       H  0.49509034  0.78155346  0.79912888     0.43700
H1284       H  0.59844251  0.70860612  0.71840130     0.43700
C1285       C  0.52801638  0.77466949  0.99457445    -0.05400
C1286       C  0.51028773  0.75636847  0.51663089    -0.32800
C1287       C  0.51350216  0.72074666  0.51987281     0.36400
C1288       C  0.53392458  0.70285070  0.99965769    -0.05800
C1289       C  0.55406899  0.72094246  0.97856028    -0.32700
C1290       C  0.55170342  0.75654604  0.97630666     0.36300
H1291       H  0.49187805  0.77001665  0.53069878     0.16700
O1292       O  0.49275652  0.70388747  0.54022776    -0.60200
H1293       H  0.57201538  0.70740452  0.96392202     0.16700
O1294       O  0.57175601  0.77328678  0.95528631    -0.60300
H1295       H  0.59419821  0.77615583  0.96554237     0.43700
H1296       H  0.50522557  0.70431272  0.56007633     0.43700
C1297       C  0.52395846  0.87519354  0.89787543    -0.05400
C1298       C  0.54972247  0.89292286  0.88210500    -0.32800
C1299       C  0.54970029  0.89485337  0.84997818     0.36400
C1300       C  0.52368688  0.87878160  0.83297178    -0.05800
C1301       C  0.49804525  0.86081288  0.84867611    -0.32700
C1302       C  0.49828978  0.85855575  0.88082651     0.36300
H1303       H  0.56963188  0.90597564  0.89474944     0.16700
O1304       O  0.57490962  0.91306533  0.83549031    -0.60200
H1305       H  0.47815290  0.84782956  0.83595903     0.16700
O1306       O  0.47352863  0.83972666  0.89528586    -0.60300
H1307       H  0.48364606  0.81662890  0.89795095     0.43700
H1308       H  0.56539167  0.93643684  0.83292441     0.43700
C1309       C  0.52450429  0.88063960  0.58287523    -0.05400
C1310       C  0.49719516  0.89634751  0.59852627    -0.32800
C1311       C  0.49643132  0.89749095  0.63086057     0.36400
C1312       C  0.52306985  0.88218955  0.64787819    -0.05800
C1313       C  0.55049039  0.86687269  0.63220087    -0.32700
C1314       C  0.55146896  0.86616431  0.60005924     0.36300
H1315       H  0.47670934  0.90839905  0.58565273     0.16700
O1316       O  0.47121984  0.91572086  0.64575722    -0.60200
H1317       H  0.57116286  0.85497615  0.64494177     0.16700
O1318       O  0.57828626  0.85001180  0.58573392    -0.60300
H1319       H  0.59682141  0.86720749  0.58497234     0.43700
H1320       H  0.44930882  0.91016860  0.63555013     0.43700
C1321       C  0.53944326  0.26170443  0.74130040    -0.05400
C1322       C  0.56574636  0.27831432  0.72525328    -0.32800
C1323       C  0.56965036  0.31382877  0.72726373     0.36400
C1324       C  0.54760267  0.33317215  0.74609866    -0.05800
C1325       C  0.52187016  0.31651229  0.76277923    -0.32700
C1326       C  0.51750035  0.28109754  0.76029664     0.36300
H1327       H  0.58300675  0.26377205  0.71074229     0.16700
O1328       O  0.59514768  0.32938880  0.71080942    -0.60200
H1329       H  0.50458924  0.33112076  0.77722623     0.16700
O1330       O  0.49197023  0.26566491  0.77681487    -0.60300
H1331       H  0.50263007  0.25917652  0.79667696     0.43700
H1332       H  0.61481133  0.33074469  0.72513941     0.43700
C1333       C  0.52182347  0.98414150  0.74125567    -0.05400
C1334       C  0.49340627  0.00263572  0.73026705    -0.32800
C1335       C  0.49375171  0.03854536  0.72923864     0.36400
C1336       C  0.52275925  0.05656567  0.73949840    -0.05800
C1337       C  0.55082150  0.03799843  0.75087420    -0.32700
C1338       C  0.55056964  0.00230974  0.75180581     0.36300
H1339       H  0.47105840  0.98922111  0.72198769     0.16700
O1340       O  0.46587512  0.05561552  0.71769784    -0.60200
H1341       H  0.57321326  0.05121263  0.75932227     0.16700
O1342       O  0.57826323  0.98550609  0.76403688    -0.60300
H1343       H  0.59537365  0.98456268  0.74721160     0.43700
H1344       H  0.47079534  0.05881683  0.69550554     0.43700
C1345       C  0.53699299  0.25837306  0.99135327    -0.05400
C1346       C  0.56027113  0.27244029  0.51177415    -0.32800
C1347       C  0.56376449  0.30801920  0.51361682     0.36400
C1348       C  0.54315669  0.33011059  0.99477093    -0.05800
C1349       C  0.51700532  0.31522703  0.97730108    -0.32700
C1350       C  0.51344236  0.27966565  0.97593983     0.36300
H1351       H  0.57624560  0.25628142  0.52609678     0.16700
O1352       O  0.58727987  0.32162363  0.53347714    -0.60200
H1353       H  0.49894157  0.33127420  0.96501804     0.16700
O1354       O  0.48775042  0.26597820  0.95843727    -0.60300
H1355       H  0.46714311  0.26665805  0.97172725     0.43700
H1356       H  0.60893077  0.32257762  0.52163542     0.43700
C1357       C  0.53166143  0.15872829  0.89540631    -0.05400
C1358       C  0.50725540  0.17833333  0.87955112    -0.32800
C1359       C  0.50703655  0.17940077  0.84729333     0.36400
C1360       C  0.53126863  0.16027151  0.83051716    -0.05800
C1361       C  0.55612587  0.14127058  0.84639387    -0.32700
C1362       C  0.55655392  0.14051636  0.87857353     0.36300
H1363       H  0.48851810  0.19320851  0.89220366     0.16700
O1364       O  0.48446246  0.20063740  0.83230365    -0.60200
H1365       H  0.57495350  0.12645383  0.83380026     0.16700
O1366       O  0.58044658  0.12064624  0.89330057    -0.60300
H1367       H  0.60115224  0.13509627  0.89468832     0.43700
H1368       H  0.46136578  0.19430565  0.83966396     0.43700
C1369       C  0.52918207  0.15769600  0.64538601    -0.05400
C1370       C  0.50336446  0.17498057  0.62909915    -0.32800
C1371       C  0.50236643  0.17414192  0.59688143     0.36400
C1372       C  0.52689496  0.15503732  0.58039227    -0.05800
C1373       C  0.55280133  0.13793550  0.59667298    -0.32700
C1374       C  0.55419520  0.13927370  0.62882111     0.36300
H1375       H  0.48413686  0.18962635  0.64135863     0.16700
O1376       O  0.47766339  0.19259413  0.58179635    -0.60200
H1377       H  0.57202157  0.12326320  0.58442671     0.16700
O1378       O  0.57937659  0.12136374  0.64383530    -0.60300
H1379       H  0.59964397  0.13649914  0.64347973     0.43700
H1380       H  0.48840614  0.21491659  0.57714122     0.43700
C1381       C  0.52361231  0.05299425  0.98600095    -0.05400
C1382       C  0.54953022  0.03449822  0.00087405    -0.32800
C1383       C  0.54911431  0.99882017  0.00178125     0.36400
C1384       C  0.52220765  0.98058224  0.98784218    -0.05800
C1385       C  0.49546063  0.99829679  0.47233355    -0.32700
C1386       C  0.49584260  0.03429165  0.47106856     0.36300
H1387       H  0.57022065  0.04780567  0.01222969     0.16700
O1388       O  0.57467079  0.98208507  0.01737640    -0.60200
H1389       H  0.47520606  0.98457514  0.46075738     0.16700
O1390       O  0.47163252  0.05117993  0.45395325    -0.60300
H1391       H  0.45117924  0.05269724  0.46729892     0.43700
H1392       H  0.59418089  0.98106197  0.00281804     0.43700
C1393       C  0.19849328  0.60134338  0.75247780    -0.05400
C1394       C  0.21734864  0.62340936  0.77131852    -0.32800
C1395       C  0.25314584  0.62188527  0.77172157     0.36400
C1396       C  0.27060178  0.59871822  0.75247108    -0.05800
C1397       C  0.25177515  0.57692637  0.73335582    -0.32700
C1398       C  0.21596949  0.57774152  0.73360171     0.36300
H1399       H  0.20428383  0.64154595  0.78609869     0.16700
O1400       O  0.27089011  0.64353599  0.79060156    -0.60200
H1401       H  0.26488728  0.55889996  0.71850413     0.16700
O1402       O  0.19832605  0.55558447  0.71509258    -0.60300
H1403       H  0.19321785  0.56868380  0.69609311     0.43700
H1404       H  0.27098425  0.66578119  0.77967387     0.43700
C1405       C  0.20024511  0.59842727  0.00358648    -0.05400
C1406       C  0.21733527  0.57109528  0.98919739    -0.32800
C1407       C  0.25310293  0.56976734  0.98843016     0.36400
C1408       C  0.27224232  0.59526507  0.00319413    -0.05800
C1409       C  0.25677526  0.62520230  0.51063715    -0.32700
C1410       C  0.22105414  0.62769049  0.51015121     0.36300
H1411       H  0.20293459  0.55097184  0.97811006     0.16700
O1412       O  0.26913610  0.54282024  0.97420508    -0.60200
H1413       H  0.27176991  0.64743175  0.51670392     0.16700
O1414       O  0.20590524  0.65815999  0.51793327    -0.60300
H1415       H  0.20627207  0.67203914  0.49883697     0.43700
H1416       H  0.27149948  0.54982581  0.95238492     0.43700
C1417       C  0.09683426  0.60484483  0.84605953    -0.05400
C1418       C  0.09836758  0.57338589  0.86156606    -0.32800
C1419       C  0.09841333  0.57189657  0.89365100     0.36400
C1420       C  0.09729377  0.60228510  0.91104915    -0.05800
C1421       C  0.09580964  0.63378276  0.89556899    -0.32700
C1422       C  0.09564462  0.63527159  0.86344577     0.36300
H1423       H  0.09948035  0.54969046  0.84878863     0.16700
O1424       O  0.09989403  0.54053112  0.90764316    -0.60200
H1425       H  0.09473006  0.65751715  0.90836402     0.16700
O1426       O  0.09381290  0.66664159  0.84942934    -0.60300
H1427       H  0.11778022  0.67469006  0.84819710     0.43700
H1428       H  0.07570166  0.53387899  0.91077608     0.43700
C1429       C  0.09594262  0.60488551  0.66090397    -0.05400
C1430       C  0.09434972  0.63570047  0.64436707    -0.32800
C1431       C  0.09505195  0.63581670  0.61215940     0.36400
C1432       C  0.09768602  0.60469522  0.59580768    -0.05800
C1433       C  0.09934725  0.57395901  0.61240158    -0.32700
C1434       C  0.09860429  0.57386314  0.64449646     0.36300
H1435       H  0.09237975  0.65987785  0.65639141     0.16700
O1436       O  0.09333305  0.66656261  0.59704440    -0.60200
H1437       H  0.10141885  0.54970741  0.60050080     0.16700
O1438       O  0.10073224  0.54312440  0.65950459    -0.60300
H1439       H  0.12492283  0.54126347  0.66614574     0.43700
H1440       H  0.06858013  0.67107660  0.59410924     0.43700
C1441       C  0.71476963  0.60603845  0.75099965    -0.05400
C1442       C  0.69761645  0.62513202  0.72844243    -0.32800
C1443       C  0.66187225  0.62510302  0.72694443     0.36400
C1444       C  0.64289254  0.60659415  0.74878351    -0.05800
C1445       C  0.66011979  0.58768268  0.77148356    -0.32700
C1446       C  0.69583874  0.58694582  0.77244264     0.36300
H1447       H  0.71199749  0.63971117  0.71168424     0.16700
O1448       O  0.64572837  0.64348987  0.70430904    -0.60200
H1449       H  0.64582744  0.57304904  0.78826846     0.16700
O1450       O  0.71199699  0.56785533  0.79461833    -0.60300
H1451       H  0.71457177  0.58343550  0.81244549     0.43700
H1452       H  0.64590057  0.66749199  0.71160092     0.43700
C1453       C  0.92022401  0.60664133  0.75511833    -0.05400
C1454       C  0.93793887  0.63782894  0.75525105    -0.32800
C1455       C  0.97374050  0.63862803  0.75524530     0.36400
C1456       C  0.99267368  0.60782902  0.75492703    -0.05800
C1457       C  0.97491507  0.57667673  0.75509115    -0.32700
C1458       C  0.93921075  0.57586562  0.75506491     0.36300
H1459       H  0.92403487  0.66183923  0.75526689     0.16700
O1460       O  0.98980494  0.66971213  0.75517009    -0.60200
H1461       H  0.98871748  0.55260530  0.75501645     0.16700
O1462       O  0.92329709  0.54470486  0.75517962    -0.60300
H1463       H  0.91968369  0.53910364  0.73318096     0.43700
H1464       H  0.99166002  0.67625669  0.77713948     0.43700
C1465       C  0.64413697  0.60586526  0.00139613    -0.05400
C1466       C  0.66320285  0.58344700  0.52275528    -0.32800
C1467       C  0.69894391  0.58367286  0.52346171     0.36400
C1468       C  0.71607074  0.60752638  0.00352746    -0.05800
C1469       C  0.69810056  0.62908793  0.98333327    -0.32700
C1470       C  0.66233255  0.62804999  0.98189136     0.36300
H1471       H  0.64951041  0.56626402  0.53789987     0.16700
O1472       O  0.71579543  0.56241860  0.54352820    -0.60200
H1473       H  0.71186285  0.64623523  0.96820971     0.16700
O1474       O  0.64542183  0.64896582  0.96158438    -0.60300
H1475       H  0.64069108  0.67030108  0.97317025     0.43700
H1476       H  0.72091887  0.57674484  0.56175028     0.43700
C1477       C  0.81520785  0.60838925  0.84585474    -0.05400
C1478       C  0.81765706  0.57741302  0.86199200    -0.32800
C1479       C  0.81832332  0.57675618  0.89407080     0.36400
C1480       C  0.81657512  0.60753955  0.91085821    -0.05800
C1481       C  0.81381668  0.63858846  0.89478223    -0.32700
C1482       C  0.81291111  0.63920912  0.86262366     0.36300
H1483       H  0.81945569  0.55345792  0.84971565     0.16700
O1484       O  0.82064654  0.54577207  0.90868350    -0.60200
H1485       H  0.81226308  0.66258906  0.90713463     0.16700
O1486       O  0.81032181  0.67016326  0.84796164    -0.60300
H1487       H  0.78543337  0.67476700  0.84636257     0.43700
H1488       H  0.84547875  0.54081185  0.91011680     0.43700
C1489       C  0.82071968  0.60410173  0.59591519    -0.05400
C1490       C  0.82776986  0.63441885  0.61187130    -0.32800
C1491       C  0.82785167  0.63520577  0.64397699     0.36400
C1492       C  0.82003536  0.60543541  0.66089096    -0.05800
C1493       C  0.81299529  0.57510768  0.64494507    -0.32700
C1494       C  0.81365637  0.57411214  0.61278814     0.36300
H1495       H  0.83357288  0.65769257  0.59943305     0.16700
O1496       O  0.83541706  0.66536954  0.65846626    -0.60200
H1497       H  0.80634373  0.55218726  0.65747938     0.16700
O1498       O  0.80709086  0.54375327  0.59820796    -0.60300
H1499       H  0.78193838  0.54323334  0.59545602     0.43700
H1500       H  0.86060682  0.66511463  0.66103802     0.43700
C1501       C  0.99426331  0.60380312  0.00227794    -0.05400
C1502       C  0.97772240  0.63384531  0.50825579    -0.32800
C1503       C  0.94197049  0.63516019  0.50816838     0.36400
C1504       C  0.92182808  0.60700402  0.00194517    -0.05800
C1505       C  0.93903151  0.57576422  0.99769822    -0.32700
C1506       C  0.97475424  0.57399773  0.99761790     0.36300
H1507       H  0.99175922  0.65720076  0.51241073     0.16700
O1508       O  0.92608816  0.66587265  0.51369384    -0.60200
H1509       H  0.92472847  0.55247089  0.99423135     0.16700
O1510       O  0.99020839  0.54289162  0.99305989    -0.60300
H1511       H  0.99214008  0.54043322  0.97042005     0.43700
H1512       H  0.92479905  0.67734013  0.49337306     0.43700
C1513       C  0.39539965  0.25444639  0.75981674    -0.05400
C1514       C  0.37228077  0.27260709  0.77840733    -0.32800
C1515       C  0.36965133  0.30826505  0.77646697     0.36400
C1516       C  0.38978507  0.32647163  0.75517155    -0.05800
C1517       C  0.41265383  0.30831748  0.73626189    -0.32700
C1518       C  0.41577343  0.27259983  0.73866656     0.36300
H1519       H  0.35624515  0.25906458  0.79464455     0.16700
O1520       O  0.34689420  0.32503414  0.79522139    -0.60200
H1521       H  0.42843355  0.32189434  0.71985436     0.16700
O1522       O  0.43824765  0.25563347  0.71979837    -0.60300
H1523       H  0.42506478  0.25037935  0.70091959     0.43700
H1524       H  0.32577813  0.32758873  0.78280109     0.43700
C1525       C  0.39369461  0.25120528  0.01096324    -0.05400
C1526       C  0.36876428  0.26657984  0.99219599    -0.32800
C1527       C  0.36596795  0.30217314  0.99011742     0.36400
C1528       C  0.38976953  0.32179439  0.50368980    -0.05800
C1529       C  0.41317059  0.30707462  0.52442684    -0.32700
C1530       C  0.41732960  0.27147370  0.52619100     0.36300
H1531       H  0.35147371  0.25088371  0.97887643     0.16700
O1532       O  0.34134597  0.31625790  0.97150822    -0.60200
H1533       H  0.42846038  0.32326877  0.53916697     0.16700
O1534       O  0.44015218  0.25793942  0.54683756    -0.60300
H1535       H  0.46239266  0.25759530  0.53587096     0.43700
H1536       H  0.32116814  0.31967827  0.98500230     0.43700
C1537       C  0.39720081  0.15001004  0.92043522    -0.05400
C1538       C  0.42528976  0.13693470  0.90405119    -0.32800
C1539       C  0.42537435  0.13673486  0.87182742     0.36400
C1540       C  0.39749443  0.15065888  0.85541427    -0.05800
C1541       C  0.36946937  0.16375436  0.87181081    -0.32700
C1542       C  0.36909846  0.16342384  0.90399173     0.36300
H1543       H  0.44688788  0.12601747  0.91623398     0.16700
O1544       O  0.45246632  0.12210736  0.85664018    -0.60200
H1545       H  0.34785175  0.17466152  0.85964361     0.16700
O1546       O  0.34168954  0.17753929  0.91912909    -0.60300
H1547       H  0.32412347  0.15934427  0.91956676     0.43700
H1548       H  0.44628266  0.09770833  0.85415912     0.43700
C1549       C  0.39776803  0.14732617  0.60530567    -0.05400
C1550       C  0.36958641  0.16146176  0.62080865    -0.32800
C1551       C  0.36843040  0.16223933  0.65297271     0.36400
C1552       C  0.39604208  0.14920862  0.67027245    -0.05800
C1553       C  0.42401744  0.13457780  0.65474973    -0.32700
C1554       C  0.42473516  0.13301198  0.62259887     0.36300
H1555       H  0.34848187  0.17238773  0.60795093     0.16700
O1556       O  0.34077383  0.17703417  0.66717488    -0.60200
H1557       H  0.44517344  0.12369344  0.66757913     0.16700
O1558       O  0.45157952  0.11679014  0.60838588    -0.60300
H1559       H  0.44430327  0.09267611  0.60610343     0.43700
H1560       H  0.32319625  0.15886454  0.66801356     0.43700
C1561       C  0.38735301  0.77065356  0.76046137    -0.05400
C1562       C  0.36382639  0.75370809  0.77934650    -0.32800
C1563       C  0.35938876  0.71830785  0.77706692     0.36400
C1564       C  0.37788628  0.69946957  0.75498976    -0.05800
C1565       C  0.40153531  0.71641415  0.73612974    -0.32700
C1566       C  0.40666869  0.75172175  0.73903174     0.36300
H1567       H  0.34887919  0.76798113  0.79599831     0.16700
O1568       O  0.33673227  0.70234680  0.79634557    -0.60200
H1569       H  0.41651200  0.70213707  0.71951166     0.16700
O1570       O  0.43003596  0.76758534  0.72039613    -0.60300
H1571       H  0.41738337  0.77313859  0.70127099     0.43700
H1572       H  0.31377416  0.70875325  0.78854981     0.43700
C1573       C  0.39538161  0.97607427  0.76246999    -0.05400
C1574       C  0.37024783  0.99468545  0.74657245    -0.32800
C1575       C  0.37023914  0.03046970  0.74672714     0.36400
C1576       C  0.39581213  0.04836664  0.76281606    -0.05800
C1577       C  0.42092237  0.02975766  0.77884048    -0.32700
C1578       C  0.42067151  0.99386779  0.77896875     0.36300
H1579       H  0.35065305  0.98141844  0.73370499     0.16700
O1580       O  0.34589701  0.04768882  0.73003050    -0.60200
H1581       H  0.44038092  0.04306812  0.79183423     0.16700
O1582       O  0.44372176  0.97644717  0.79694917    -0.60300
H1583       H  0.46584775  0.97791304  0.78596875     0.43700
H1584       H  0.32547372  0.04863700  0.74353302     0.43700
C1585       C  0.38612583  0.76758410  0.00878187    -0.05400
C1586       C  0.36392839  0.74942564  0.52817334    -0.32800
C1587       C  0.36054651  0.71383524  0.52689651     0.36400
C1588       C  0.37876951  0.69595024  0.00518067    -0.05800
C1589       C  0.40074354  0.71317195  0.98492853    -0.32700
C1590       C  0.40496149  0.74869425  0.98697176     0.36300
H1591       H  0.34938162  0.76367627  0.54511824     0.16700
O1592       O  0.33865204  0.69787700  0.54689098    -0.60200
H1593       H  0.41513791  0.69897849  0.96784636     0.16700
O1594       O  0.42612010  0.76492814  0.96652719    -0.60300
H1595       H  0.44952709  0.76148157  0.97470063     0.43700
H1596       H  0.35183694  0.69497693  0.56620199     0.43700
C1597       C  0.39136723  0.87323631  0.91935785    -0.05400
C1598       C  0.36749317  0.85379363  0.90294597    -0.32800
C1599       C  0.36729915  0.85388880  0.87076892     0.36400
C1600       C  0.39144916  0.87336959  0.85446060    -0.05800
C1601       C  0.41500859  0.89327575  0.87079600    -0.32700
C1602       C  0.41493905  0.89357827  0.90312975     0.36300
H1603       H  0.34920105  0.83805723  0.91512226     0.16700
O1604       O  0.34437761  0.83365687  0.85545434    -0.60200
H1605       H  0.43307344  0.90912891  0.85845653     0.16700
O1606       O  0.43617421  0.91541813  0.91879192    -0.60300
H1607       H  0.45936301  0.91224975  0.91003224     0.43700
H1608       H  0.32309343  0.84744971  0.85420607     0.43700
C1609       C  0.39100155  0.86805023  0.60440915    -0.05400
C1610       C  0.41544043  0.84917106  0.62096925    -0.32800
C1611       C  0.41606409  0.84999564  0.65327049     0.36400
C1612       C  0.39198549  0.87000560  0.66943227    -0.05800
C1613       C  0.36706126  0.88818595  0.65290256    -0.32700
C1614       C  0.36654659  0.88751621  0.62072065     0.36300
H1615       H  0.43407541  0.83362381  0.60886712     0.16700
O1616       O  0.43910399  0.82993860  0.66893587    -0.60200
H1617       H  0.34827623  0.90357755  0.66498353     0.16700
O1618       O  0.34237972  0.90655151  0.60547458    -0.60300
H1619       H  0.35333858  0.92895990  0.60158854     0.43700
H1620       H  0.46204793  0.83718106  0.66186989     0.43700
C1621       C  0.39443832  0.97303822  0.01268443    -0.05400
C1622       C  0.42641698  0.98875844  0.52381234    -0.32800
C1623       C  0.42788942  0.02459683  0.52451593     0.36400
C1624       C  0.39705433  0.04533944  0.01314232    -0.05800
C1625       C  0.36763295  0.02829447  0.00308531    -0.32700
C1626       C  0.36617623  0.99263986  0.00265940     0.36300
H1627       H  0.44819716  0.97415754  0.53198104     0.16700
O1628       O  0.45670235  0.04007457  0.53570541    -0.60200
H1629       H  0.34561806  0.04267762  0.99511650     0.16700
O1630       O  0.33692988  0.97733887  0.99218894    -0.60300
H1631       H  0.34059374  0.97409247  0.96980152     0.43700
H1632       H  0.45201366  0.04406850  0.55783324     0.43700
loop_ 
_geom_bond_atom_site_label_1 
_geom_bond_atom_site_label_2 
_geom_bond_distance 
_geom_bond_site_symmetry_2 
_ccdc_geom_bond_type 
O1            V9   1.903       .  S
O1           C11   1.266       .  A
O2          V825   1.904       .  S
O2           C12   1.265       .  A
O3            V9   1.904       .  S
O3          C829   1.266       .  A
O4          V825   1.906       .  S
O4           C14   1.266       .  A
O5          V826   1.897       .  S
O5          C830   1.264       .  A
O6           V10   1.894       .  S
O6           C13   1.264       .  A
O7           V10   1.900       .  S
O7           C12   1.265       .  A
O8          V826   1.898       .  S
O8           C11   1.264       .  A
V9          O818   1.900   1_554  S
V9          O820   1.906       .  S
V9          V826   2.082       .  T
V10         O821   1.897       .  S
V10         O824   1.898       .  S
V10         V825   2.082       .  T
C11         C793   1.478       .  S
C12         C781   1.477       .  S
C13         O819   1.266       .  A
C13         C805   1.484       .  S
C14         O821   1.264       .  A
C14         C769   1.475       .  S
O15          V23   1.896       .  S
O15          C25   1.263       .  A
O16          V23   1.896       .  S
O16          C26   1.263       .  A
O17          V23   1.901       .  S
O17          C27   1.265       .  A
O18          V23   1.902       .  S
O18          C28   1.265       .  A
O19          V24   1.899       .  S
O19          C28   1.264       .  A
O20          V24   1.902       .  S
O20          C27   1.264       .  A
O21          V24   1.907       .  S
O21          C26   1.266       .  A
O22          V24   1.906       .  S
O22          C25   1.266       .  A
V23          V24   2.088       .  T
C25         C757   1.478       .  S
C26         C745   1.477       .  S
C27         C784   1.476       .  S
C28         C796   1.477       .  S
O29          V37   1.905       .  S
O29          C39   1.265       .  A
O30         V853   1.910       .  S
O30         C856   1.267       .  A
O31         V853   1.896       .  S
O31          C41   1.264       .  A
O32          V37   1.904       .  S
O32          C42   1.265       .  A
O33          V38   1.891       .  S
O33          C42   1.263       .  A
O34         V854   1.898       .  S
O34          C41   1.264       .  A
O35          V38   1.894       .  S
O35          C40   1.263       .  A
O36         V854   1.894       .  S
O36         C855   1.264       .  A
V37         O846   1.911       .  S
V37         O847   1.898       .  S
V37          V38   2.086       .  T
V38         O850   1.898       .  S
V38         O852   1.895       .  S
C39         O852   1.264       .  A
C39         C808   1.482       .  S
C40         O846   1.267       .  A
C40         C709   1.478       .  S
C41         C733   1.478       .  S
C42         C721   1.477       .  S
O43          V51   1.898       .  S
O43          C53   1.264       .  A
O44          V51   1.898       .  S
O44          C54   1.265       .  A
O45          V51   1.901       .  S
O45          C55   1.265       .  A
O46          V51   1.901       .  S
O46          C56   1.265       .  A
O47          V52   1.902       .  S
O47          C56   1.265       .  A
O48          V52   1.909       .  S
O48          C55   1.267       .  A
O49          V52   1.896       .  S
O49          C54   1.264       .  A
O50          V52   1.895       .  S
O50          C53   1.264       .  A
V51          V52   2.086       .  T
C53         C736   1.479       .  S
C54         C724   1.477       .  S
C55         C697   1.483       .  S
C56         C760   1.479       .  S
O57         V881   1.901       .  S
O57         C883   1.264       .  A
O58          V65   1.897       .  S
O58          C68   1.264       .  A
O59          V65   1.897       .  S
O59          C69   1.264       .  A
O60         V881   1.899       .  S
O60          C70   1.265       .  A
O61         V882   1.892       .  S
O61          C70   1.263       .  A
O62          V66   1.892       .  S
O62          C69   1.264       .  A
O63         V882   1.897       .  S
O63         C884   1.265       .  A
O64          V66   1.898       .  S
O64          C67   1.264       .  A
V65         O873   1.901       .  S
V65         O876   1.897       .  S
V65          V66   2.085       .  T
V66         O877   1.892       .  S
V66         O879   1.899       .  S
C67         O873   1.264       .  A
C67         C652   1.473       .  S
C68         O879   1.265       .  A
C68         C688   1.483       .  S
C69         C664   1.480       .  S
C70         C673   1.479       .  S
O71          V79   1.902       .  S
O71          C81   1.266       .  A
O72          V79   1.903       .  S
O72          C82   1.265       .  A
O73          V79   1.894       .  S
O73          C83   1.263       .  A
O74          V79   1.889       .  S
O74          C84   1.262       .  A
O75          V80   1.901       .  S
O75          C84   1.267       .  A
O76          V80   1.898       .  S
O76          C83   1.265       .  A
O77          V80   1.895       .  S
O77          C82   1.262       .  A
O78          V80   1.893       .  S
O78          C81   1.263       .  A
V79          V80   2.086       .  T
C81         C637   1.484       .  S
C82         C625   1.468       .  S
C83         C661   1.480       .  S
C84         C676   1.480       .  S
O85          V93   1.893       .  S
O85          C95   1.263       .  A
O86         V909   1.900       .  S
O86         C912   1.265       .  A
O87         V909   1.898       .  S
O87          C97   1.264       .  A
O88          V93   1.898       .  S
O88          C98   1.265       .  A
O89          V94   1.893       .  S
O89          C98   1.264       .  A
O90         V910   1.892       .  S
O90          C97   1.263       .  A
O91          V94   1.902       .  S
O91          C96   1.266       .  A
O92         V910   1.901       .  S
O92         C911   1.265       .  A
V93         O902   1.895       .  S
V93         O903   1.899       .  S
V93          V94   2.085       .  T
V94         O906   1.893       .  S
V94         O908   1.901       .  S
C95         O908   1.266       .  A
C95         C685   1.482   1_455  S
C96         O902   1.264       .  A
C96         C589   1.482       .  S
C97         C616   1.474       .  S
C98         C604   1.481       .  S
O99         V107   1.902       .  S
O99         C109   1.264       .  A
O100        V107   1.898       .  S
O100        C110   1.265       .  A
O101        V107   1.896       .  S
O101        C111   1.264       .  A
O102        V107   1.900       .  S
O102        C112   1.266       .  A
O103        V108   1.891       .  S
O103        C112   1.263       .  A
O104        V108   1.894       .  S
O104        C111   1.264       .  A
O105        V108   1.899       .  S
O105        C110   1.265       .  A
O106        V108   1.899       .  S
O106        C109   1.264       .  A
V107        V108   2.084       .  T
C109        C577   1.474       .  S
C110        C640   1.485   1_455  S
C111        C613   1.475       .  S
C112        C601   1.481       .  S
O113        V937   1.900       .  S
O113        C939   1.265       .  A
O114        V121   1.895       .  S
O114        C124   1.264       .  A
O115        V121   1.897       .  S
O115        C125   1.264       .  A
O116        V937   1.894   1_554  S
O116        C126   1.263       .  A
O117        V938   1.906   1_554  S
O117        C126   1.266       .  A
O118        V122   1.899       .  S
O118        C125   1.264       .  A
O119        V938   1.909       .  S
O119        C940   1.266       .  A
O120        V122   1.901       .  S
O120        C123   1.264       .  A
V121        O929   1.899       .  S
V121        O932   1.894       .  S
V121        V122   2.087       .  T
V122        O933   1.906       .  S
V122        O935   1.911       .  S
C123        O929   1.264       .  A
C123        C529   1.474       .  S
C124        O935   1.266       .  A
C124        C565   1.482       .  S
C125        C541   1.476       .  S
C126        C556   1.480       .  S
O127        V135   1.893       .  S
O127        C137   1.264       .  A
O128        V135   1.898       .  S
O128        C138   1.263       .  A
O129        V135   1.900       .  S
O129        C139   1.265       .  A
O130        V135   1.900       .  S
O130        C140   1.265       .  A
O131        V136   1.900       .  S
O131        C140   1.265       .  A
O132        V136   1.897       .  S
O132        C139   1.264       .  A
O133        V136   1.902       .  S
O133        C138   1.265       .  A
O134        V136   1.910       .  S
O134        C137   1.267       .  A
V135        V136   2.086       .  T
C137        C520   1.485       .  S
C138        C505   1.476       .  S
C139        C544   1.475       .  S
C140        C553   1.482       .  S
O141        V149   1.916       .  S
O141        C151   1.268       .  A
O142        V965   1.912       .  S
O142        C968   1.267       .  A
O143        V965   1.901   1_554  S
O143        C153   1.265       .  A
O144        V149   1.902       .  S
O144        C154   1.265       .  A
O145        V150   1.899       .  S
O145        C154   1.265       .  A
O146        V966   1.898   1_554  S
O146        C153   1.265       .  A
O147        V150   1.895       .  S
O147        C152   1.263       .  A
O148        V966   1.892       .  S
O148        C967   1.264       .  A
V149        O958   1.912       .  S
V149        O959   1.901       .  S
V149        V150   2.081       .  T
V150        O962   1.899       .  S
V150        O964   1.891       .  S
C151        O964   1.264       .  A
C151        C568   1.486       .  S
C152        O958   1.268       .  A
C152        C469   1.481       .  S
C153        C493   1.480       .  S
C154        C481   1.480       .  S
O155        V163   1.911       .  S
O155        C165   1.267       .  A
O156        V163   1.911       .  S
O156        C166   1.267       .  A
O157        V163   1.900       .  S
O157        C167   1.264       .  A
O158        V163   1.899       .  S
O158        C168   1.264       .  A
O159        V164   1.900       .  S
O159        C168   1.265       .  A
O160        V164   1.899       .  S
O160        C167   1.264       .  A
O161        V164   1.895       .  S
O161        C166   1.264       .  A
O162        V164   1.898       .  S
O162        C165   1.264       .  A
V163        V164   2.087       .  T
C165        C457   1.480       .  S
C166        C517   1.487       .  S
C167        C496   1.478       .  S
C168        C484   1.477       .  S
O169        V177   1.906       .  S
O169        C995   1.266       .  A
O170        V177   1.903       .  S
O170        C996   1.265       .  A
O171        V177   1.895       .  S
O171        C181   1.263       .  A
O172        V177   1.901       .  S
O172        C182   1.264       .  A
O173        V178   1.909       .  S
O173        C998   1.267       .  A
O174        V178   1.907       .  S
O174        C997   1.265       .  A
O175        V178   1.892       .  S
O175        C180   1.262       .  A
O176        V178   1.891       .  S
O176        C179   1.262       .  A
V177        V994   2.089   1_554  T
V178        V993   2.087       .  T
C179        O985   1.267       .  A
C179        C445   1.480       .  S
C180        O986   1.265       .  A
C180       C1053   1.463       .  S
C181        O990   1.266   1_554  A
C181       C1024   1.469       .  S
C182        O989   1.266   1_554  A
C182        C712   1.476       .  S
O183        V191   1.912       .  S
O183        C193   1.268       .  A
O184        V191   1.916       .  S
O184        C194   1.268       .  A
O185        V191   1.893       .  S
O185        C195   1.262       .  A
O186        V191   1.897       .  S
O186        C196   1.263       .  A
O187        V192   1.901       .  S
O187        C196   1.265       .  A
O188        V192   1.907       .  S
O188        C195   1.266       .  A
O189        V192   1.892       .  S
O189        C194   1.263       .  A
O190        V192   1.900       .  S
O190        C193   1.263       .  A
V191        V192   2.086       .  T
C193        C700   1.482       .  S
C194        C223   1.472       .  S
C195        C250   1.465       .  S
C196        C433   1.476       .  S
O197        V205   1.892       .  S
O197       C1023   1.262       .  A
O198        V205   1.895       .  S
O198       C1024   1.263       .  A
O199        V205   1.900       .  S
O199        C209   1.265       .  A
O200        V205   1.900       .  S
O200        C210   1.264       .  A
O201        V206   1.899       .  S
O201       C1026   1.263       .  A
O202        V206   1.897       .  S
O202       C1025   1.262       .  A
O203        V206   1.908       .  S
O203        C208   1.266       .  A
O204        V206   1.907       .  S
O204        C207   1.266       .  A
V205       V1022   2.089   1_554  T
V206       V1021   2.089       .  T
C207       O1013   1.263       .  A
C207        C772   1.476       .  S
C208       O1014   1.264       .  A
C208        C997   1.471       .  S
C209       O1018   1.262   1_554  A
C209       C1080   1.462       .  S
C210       O1017   1.263   1_554  A
C210       C1408   1.468       .  S
O211        V219   1.905       .  S
O211        C221   1.266       .  A
O212        V219   1.899       .  S
O212        C222   1.263       .  A
O213        V219   1.913       .  S
O213        C223   1.266       .  A
O214        V219   1.911       .  S
O214        C224   1.267       .  A
O215        V220   1.894       .  S
O215        C224   1.262       .  A
O216        V220   1.895       .  S
O216        C223   1.264       .  A
O217        V220   1.896       .  S
O217        C222   1.264       .  A
O218        V220   1.899       .  S
O218        C221   1.264       .  A
V219        V220   2.088       .  T
C221        C580   1.477       .  S
C222        C278   1.463       .  S
C224        C748   1.475       .  S
O225        V233   1.906       .  S
O225       C1051   1.266   1_554  A
O226        V233   1.904       .  S
O226       C1052   1.265   1_554  A
O227        V233   1.902       .  S
O227        C237   1.264       .  A
O228        V233   1.898       .  S
O228        C238   1.264   1_554  A
O229        V234   1.899       .  S
O229       C1054   1.264       .  A
O230        V234   1.894       .  S
O230       C1053   1.263       .  A
O231        V234   1.902       .  S
O231        C236   1.265       .  A
O232        V234   1.896       .  S
O232        C235   1.264       .  A
V233       V1050   2.087   1_554  T
V234       V1049   2.087       .  T
C235       O1041   1.265       .  A
C235        C532   1.475       .  S
C236       O1042   1.264       .  A
C236       C1081   1.469       .  S
C237       O1046   1.264   1_554  A
C237        C996   1.464       .  S
C238       O1045   1.265       .  A
C238        C421   1.476       .  S
O239        V247   1.899       .  S
O239        C249   1.263       .  A
O240        V247   1.898       .  S
O240        C250   1.265       .  A
O241        V247   1.896       .  S
O241        C251   1.263       .  A
O242        V247   1.898       .  S
O242        C252   1.263       .  A
O243        V248   1.902       .  S
O243        C252   1.265       .  A
O244        V248   1.908       .  S
O244        C251   1.266       .  A
O245        V248   1.901       .  S
O245        C250   1.263       .  A
O246        V248   1.903       .  S
O246        C249   1.265       .  A
V247        V248   2.087       .  T
C249        C409   1.473       .  S
C251        C279   1.469       .  S
C252        C508   1.471       .  S
O253        V261   1.896       .  S
O253       C1079   1.263       .  A
O254        V261   1.892       .  S
O254       C1080   1.261       .  A
O255        V261   1.907       .  S
O255        C265   1.266       .  A
O256        V261   1.912       .  S
O256        C266   1.267       .  A
O257        V262   1.896       .  S
O257       C1082   1.263       .  A
O258        V262   1.899       .  S
O258       C1081   1.263       .  A
O259        V262   1.904       .  S
O259        C264   1.266       .  A
O260        V262   1.903       .  S
O260        C263   1.265       .  A
V261       V1078   2.089   1_554  T
V262       V1077   2.089       .  T
C263       O1069   1.263       .  A
C263        C649   1.473       .  S
C264       O1070   1.262       .  A
C264       C1025   1.464       .  S
C265       O1074   1.263   1_554  A
C265       C1052   1.468   1_554  S
C266       O1073   1.263   1_554  A
C266       C1288   1.477   1_554  S
O267        V275   1.894       .  S
O267        C277   1.263       .  A
O268        V275   1.892       .  S
O268        C278   1.262       .  A
O269        V275   1.906       .  S
O269        C279   1.265       .  A
O270        V275   1.911       .  S
O270        C280   1.267       .  A
O271        V276   1.901       .  S
O271        C280   1.264       .  A
O272        V276   1.899       .  S
O272        C279   1.264       .  A
O273        V276   1.905       .  S
O273        C278   1.265       .  A
O274        V276   1.903       .  S
O274        C277   1.265       .  A
V275        V276   2.088       .  T
C277        C628   1.476       .  S
C280        C460   1.483       .  S
O281        V289   1.898       .  S
O281        C291   1.264       .  A
O282       V1105   1.902       .  S
O282       C1108   1.265       .  A
O283       V1105   1.899       .  S
O283        C293   1.264       .  A
O284        V289   1.895   1_554  S
O284        C294   1.264       .  A
O285        V290   1.894   1_554  S
O285        C294   1.263       .  A
O286       V1106   1.897       .  S
O286        C293   1.265       .  A
O287        V290   1.901       .  S
O287        C292   1.266       .  A
O288       V1106   1.899       .  S
O288       C1107   1.264       .  A
V289       O1098   1.900       .  S
V289       O1099   1.896       .  S
V289        V290   2.086       .  T
V290       O1102   1.897       .  S
V290       O1104   1.899       .  S
C291       O1104   1.265       .  A
C291        C448   1.477       .  S
C292       O1098   1.264       .  A
C292        C397   1.485   1_455  S
C293        C373   1.482       .  S
C294        C385   1.478       .  S
O295        V303   1.902       .  S
O295        C305   1.266       .  A
O296        V303   1.901       .  S
O296        C306   1.264       .  A
O297        V303   1.897       .  S
O297        C307   1.264       .  A
O298        V303   1.891       .  S
O298        C308   1.264       .  A
O299        V304   1.899       .  S
O299        C308   1.265       .  A
O300        V304   1.897       .  S
O300        C307   1.265       .  A
O301        V304   1.897       .  S
O301        C306   1.263       .  A
O302        V304   1.897       .  S
O302        C305   1.264       .  A
V303        V304   2.084       .  T
C305        C361   1.485       .  S
C306        C436   1.472       .  S
C307        C376   1.481       .  S
C308        C388   1.479       .  S
O309        V317   1.897       .  S
O309        C319   1.264       .  A
O310       V1133   1.898       .  S
O310       C1136   1.263       .  A
O311       V1133   1.893   1_554  S
O311        C321   1.264       .  A
O312        V317   1.899       .  S
O312        C322   1.266       .  A
O313        V318   1.894       .  S
O313        C322   1.263       .  A
O314       V1134   1.895   1_554  S
O314        C321   1.263       .  A
O315        V318   1.900       .  S
O315        C320   1.264       .  A
O316       V1134   1.902       .  S
O316       C1135   1.266       .  A
V317       O1126   1.898       .  S
V317       O1127   1.897       .  S
V317        V318   2.085       .  T
V318       O1130   1.897       .  S
V318       O1132   1.902       .  S
C319       O1132   1.266       .  A
C319       C1216   1.482       .  S
C320       O1126   1.264       .  A
C320        C424   1.474       .  S
C321        C349   1.479       .  S
C322        C337   1.482       .  S
O323        V331   1.898       .  S
O323        C333   1.263       .  A
O324        V331   1.898       .  S
O324        C334   1.265       .  A
O325        V331   1.892       .  S
O325        C335   1.263       .  A
O326        V331   1.896       .  S
O326        C336   1.265       .  A
O327        V332   1.894       .  S
O327        C336   1.264       .  A
O328        V332   1.896       .  S
O328        C335   1.264       .  A
O329        V332   1.903       .  S
O329        C334   1.265       .  A
O330        V332   1.902       .  S
O330        C333   1.266       .  A
V331        V332   2.085       .  T
C333        C412   1.477       .  S
C334        C364   1.484       .  S
C335        C352   1.479       .  S
C336        C340   1.480       .  S
C337        C338   1.403       .  A
C337        C342   1.412       .  A
C338        C339   1.396       .  A
C338        H343   1.079       .  S
C339        C340   1.409       .  A
C339        O344   1.371       .  S
C340        C341   1.405       .  A
C341        C342   1.399       .  A
C341        H345   1.083       .  S
C342        O346   1.372       .  S
O344        H348   0.992       .  S
O346        H347   0.992       .  S
C349        C350   1.403       .  A
C349        C354   1.411       .  A
C350        C351   1.395       .  A
C350        H355   1.083       .  S
C351        C352   1.410       .  A
C351        O356   1.370       .  S
C352        C353   1.405       .  A
C353        C354   1.398       .  A
C353        H357   1.083       .  S
C354        O358   1.371       .  S
O356        H360   0.992       .  S
O358        H359   0.992       .  S
C361        C362   1.406   1_455  A
C361        C366   1.412   1_455  A
C362        C363   1.401       .  A
C362        H367   1.083       .  S
C363        C364   1.411       .  A
C363        O368   1.371       .  S
C364        C365   1.405       .  A
C365        C366   1.399       .  A
C365        H369   1.082       .  S
C366        O370   1.372   1_655  S
O368        H372   0.992       .  S
O370        H371   0.992       .  S
C373        C374   1.403       .  A
C373        C378   1.411       .  A
C374        C375   1.397       .  A
C374        H379   1.080       .  S
C375        C376   1.409       .  A
C375        O380   1.371       .  S
C376        C377   1.406       .  A
C377        C378   1.401       .  A
C377        H381   1.083       .  S
C378        O382   1.371       .  S
O380        H384   0.992       .  S
O382        H383   0.992       .  S
C385        C386   1.406       .  A
C385        C390   1.410       .  A
C386        C387   1.398       .  A
C386        H391   1.084       .  S
C387        C388   1.410       .  A
C387        O392   1.371       .  S
C388        C389   1.405       .  A
C389        C390   1.396       .  A
C389        H393   1.083       .  S
C390        O394   1.372       .  S
O392        H396   0.992       .  S
O394        H395   0.992       .  S
C397        C398   1.404       .  A
C397       C1218   1.412       .  A
C398        C399   1.399       .  A
C398        H403   1.082   1_556  S
C399        C400   1.411       .  A
C399        O404   1.371   1_556  S
C400       C1135   1.485       .  S
C400       C1217   1.405       .  A
C401        C402   1.402       .  A
C401       C1216   1.405       .  A
C401        H405   1.084       .  S
C402       C1213   1.412       .  A
C402        O406   1.371       .  S
O404        H408   0.992       .  S
O406        H407   0.992       .  S
C409        C410   1.403       .  A
C409        C414   1.407       .  A
C410        C411   1.402       .  A
C410        H415   1.084       .  S
C411        C412   1.411       .  A
C411        O416   1.372       .  S
C412        C413   1.403       .  A
C413        C414   1.399       .  A
C413        H417   1.084       .  S
C414        O418   1.372       .  S
O416        H420   0.992       .  S
O418        H419   0.992       .  S
C421        C426   1.410       .  A
C421       C1238   1.404   1_556  A
C422        C423   1.400       .  A
C422       C1237   1.403       .  A
C422        H427   1.084       .  S
C423        C424   1.409       .  A
C423        O428   1.372       .  S
C424       C1241   1.403       .  A
C425        C426   1.401       .  A
C425       C1240   1.403       .  A
C425        H429   1.084       .  S
C426        O430   1.372       .  S
O428        H432   0.992       .  S
O430        H431   0.992       .  S
C433        C434   1.405       .  A
C433        C438   1.409       .  A
C434        C435   1.401       .  A
C434        H439   1.084       .  S
C435        C436   1.407       .  A
C435        O440   1.372       .  S
C436        C437   1.402       .  A
C437        C438   1.399       .  A
C437        H441   1.084       .  S
C438        O442   1.372       .  S
O440        H444   0.992       .  S
O442        H443   0.992       .  S
C445        C450   1.414       .  A
C445       C1262   1.405       .  A
C446        C447   1.400       .  A
C446       C1261   1.402   1_556  A
C446        H451   1.084       .  S
C447        C448   1.410       .  A
C447        O452   1.372       .  S
C448       C1265   1.405   1_556  A
C449        C450   1.397       .  A
C449       C1264   1.399       .  A
C449        H453   1.084       .  S
C450        O454   1.372       .  S
O452        H456   0.992       .  S
O454        H455   0.991       .  S
C457        C458   1.403       .  A
C457        C462   1.410       .  A
C458        C459   1.401       .  A
C458        H463   1.084       .  S
C459        C460   1.410       .  A
C459        O464   1.372       .  S
C460        C461   1.406       .  A
C461        C462   1.406       .  A
C461        H465   1.083       .  S
C462        O466   1.372       .  S
O464        H468   0.992       .  S
O466        H467   0.992       .  S
C469        C474   1.410       .  A
C469       C1286   1.406       .  A
C470        C471   1.405       .  A
C470       C1285   1.405   1_554  A
C470        H475   1.084       .  S
C471       C1288   1.409   1_554  A
C471        O476   1.371       .  S
C472       C1082   1.479       .  S
C472        C473   1.403       .  A
C472       C1287   1.409       .  A
C473        C474   1.400       .  A
C473        H477   1.084       .  S
C474        O478   1.372       .  S
O476        H480   0.992       .  S
O478        H479   0.992       .  S
C481        C482   1.405       .  A
C481        C486   1.410       .  A
C482        C483   1.400       .  A
C482        H487   1.084       .  S
C483        C484   1.408       .  A
C483        O488   1.372       .  S
C484        C485   1.404       .  A
C485        C486   1.401       .  A
C485        H489   1.083       .  S
C486        O490   1.372       .  S
O488        H492   0.992       .  S
O490        H491   0.992       .  S
C493        C494   1.405       .  A
C493        C498   1.410       .  A
C494        C495   1.405       .  A
C494        H499   1.084       .  S
C495        C496   1.409       .  A
C495        O500   1.375       .  S
C496        C497   1.403       .  A
C497        C498   1.399       .  A
C497        H501   1.084       .  S
C498        O502   1.372       .  S
O500        H504   0.991       .  S
O502        H503   0.992       .  S
C505        C506   1.404       .  A
C505        C510   1.410       .  A
C506        C507   1.401       .  A
C506        H511   1.084       .  S
C507        C508   1.407       .  A
C507        O512   1.372       .  S
C508        C509   1.402       .  A
C509        C510   1.400       .  A
C509        H513   1.084       .  S
C510        O514   1.372       .  S
O512        H516   0.992       .  S
O514        H515   0.992       .  S
C517        C518   1.408   1_565  A
C517        C522   1.411   1_565  A
C518        C519   1.406       .  A
C518        H523   1.083   1_545  S
C519        C520   1.411       .  A
C519        O524   1.371       .  S
C520        C521   1.404       .  A
C521        C522   1.397       .  A
C521        H525   1.084       .  S
C522        O526   1.372   1_545  S
O524        H528   0.992       .  S
O526        H527   0.992       .  S
C529        C534   1.407       .  A
C529       C1346   1.405       .  A
C530        C531   1.401       .  A
C530       C1345   1.406   1_554  A
C530        H535   1.084       .  S
C531       C1348   1.406   1_554  A
C531        O536   1.372       .  S
C532        C533   1.404       .  A
C532       C1347   1.408       .  A
C533        C534   1.400       .  A
C533        H537   1.084       .  S
C534        O538   1.372       .  S
O536        H540   0.992       .  S
O538        H539   0.992       .  S
C541        C542   1.404       .  A
C541        C546   1.409       .  A
C542        C543   1.403       .  A
C542        H547   1.084       .  S
C543        C544   1.409       .  A
C543        O548   1.374       .  S
C544        C545   1.403       .  A
C545        C546   1.399       .  A
C545        H549   1.084       .  S
C546        O550   1.372       .  S
O548        H552   0.991       .  S
O550        H551   0.992       .  S
C553        C554   1.405       .  A
C553        C558   1.411       .  A
C554        C555   1.401       .  A
C554        H559   1.084       .  S
C555        C556   1.409       .  A
C555        O560   1.371       .  S
C556        C557   1.404       .  A
C557        C558   1.400       .  A
C557        H561   1.084       .  S
C558        O562   1.372       .  S
O560        H564   0.991       .  S
O562        H563   0.992       .  S
C565        C566   1.401       .  A
C565       C1386   1.411       .  A
C566        C567   1.396   1_545  A
C566        H571   1.084       .  S
C567        C568   1.411       .  A
C567        O572   1.372       .  S
C568       C1385   1.408       .  A
C569        C570   1.409   1_565  A
C569       C1384   1.408       .  A
C569        H573   1.084       .  S
C570       C1381   1.411       .  A
C570        O574   1.372       .  S
O572        H576   0.992       .  S
O574        H575   0.990       .  S
C577        C578   1.402       .  A
C577        C582   1.408       .  A
C578        C579   1.401       .  A
C578        H583   1.084       .  S
C579        C580   1.409       .  A
C579        O584   1.372       .  S
C580        C581   1.404       .  A
C581        C582   1.402       .  A
C581        H585   1.084       .  S
C582        O586   1.372       .  S
O584        H588   0.991       .  S
O586        H587   0.992       .  S
C589        C590   1.408       .  A
C589       C1410   1.412       .  A
C590        C591   1.399       .  A
C590        H595   1.084       .  S
C591        C592   1.403       .  A
C591        O596   1.370       .  S
C592       C1026   1.466       .  S
C592       C1409   1.399       .  A
C593        C594   1.400       .  A
C593       C1408   1.401       .  A
C593        H597   1.084       .  S
C594       C1405   1.411       .  A
C594        O598   1.372       .  S
O596        H600   0.992       .  S
O598        H599   0.992       .  S
C601        C602   1.404       .  A
C601        C606   1.412       .  A
C602        C603   1.398       .  A
C602        H607   1.081       .  S
C603        C604   1.410       .  A
C603        O608   1.370       .  S
C604        C605   1.404       .  A
C605        C606   1.397       .  A
C605        H609   1.083       .  S
C606        O610   1.372       .  S
O608        H612   0.992       .  S
O610        H611   0.992       .  S
C613        C614   1.403       .  A
C613        C618   1.409       .  A
C614        C615   1.397       .  A
C614        H619   1.084       .  S
C615        C616   1.409       .  A
C615        O620   1.372       .  S
C616        C617   1.403       .  A
C617        C618   1.399       .  A
C617        H621   1.084       .  S
C618        O622   1.372       .  S
O620        H624   0.992       .  S
O622        H623   0.990       .  S
C625        C626   1.402       .  A
C625        C630   1.406       .  A
C626        C627   1.401       .  A
C626        H631   1.084       .  S
C627        C628   1.409       .  A
C627        O632   1.371       .  S
C628        C629   1.405       .  A
C629        C630   1.399       .  A
C629        H633   1.084       .  S
C630        O634   1.372       .  S
O632        H636   0.991       .  S
O634        H635   0.992       .  S
C637        C638   1.404       .  A
C637        C642   1.412       .  A
C638        C639   1.400       .  A
C638        H643   1.083       .  S
C639        C640   1.412       .  A
C639        O644   1.371       .  S
C640        C641   1.405       .  A
C641        C642   1.398       .  A
C641        H645   1.083       .  S
C642        O646   1.371       .  S
O644        H648   0.992       .  S
O646        H647   0.991       .  S
C649        C654   1.408       .  A
C649       C1466   1.403       .  A
C650        C651   1.398       .  A
C650       C1465   1.403       .  A
C650        H655   1.084       .  S
C651       C1468   1.408       .  A
C651        O656   1.372       .  S
C652        C653   1.404       .  A
C652       C1467   1.408       .  A
C653        C654   1.401       .  A
C653        H657   1.084       .  S
C654        O658   1.372       .  S
O656        H660   0.992       .  S
O658        H659   0.992       .  S
C661        C662   1.402       .  A
C661        C666   1.412       .  A
C662        C663   1.396       .  A
C662        H667   1.081       .  S
C663        C664   1.411       .  A
C663        O668   1.370       .  S
C664        C665   1.405       .  A
C665        C666   1.399       .  A
C665        H669   1.083       .  S
C666        O670   1.372       .  S
O668        H672   0.992       .  S
O670        H671   0.992       .  S
C673        C674   1.403       .  A
C673        C678   1.411       .  A
C674        C675   1.398       .  A
C674        H679   1.083       .  S
C675        C676   1.413       .  A
C675        O680   1.372       .  S
C676        C677   1.402       .  A
C677        C678   1.398       .  A
C677        H681   1.081       .  S
C678        O682   1.371       .  S
O680        H684   0.992       .  S
O682        H683   0.992       .  S
C685        C690   1.412       .  A
C685       C1502   1.404       .  A
C686        C687   1.401       .  A
C686       C1501   1.406       .  A
C686        H691   1.083       .  S
C687       C1504   1.412       .  A
C687        O692   1.371       .  S
C688        C689   1.404       .  A
C688       C1503   1.412       .  A
C689        C690   1.398       .  A
C689        H693   1.083       .  S
C690        O694   1.371       .  S
O692        H696   0.992   1_554  S
O694        H695   0.992       .  S
C697        C698   1.405       .  A
C697        C702   1.410       .  A
C698        C699   1.402       .  A
C698        H703   1.084       .  S
C699        C700   1.410       .  A
C699        O704   1.372       .  S
C700        C701   1.404       .  A
C701        C702   1.404       .  A
C701        H705   1.084       .  S
C702        O706   1.371       .  S
O704        H708   0.992       .  S
O706        H707   0.992       .  S
C709        C710   1.405       .  A
C709       C1530   1.407       .  A
C710        C711   1.401       .  A
C710        H715   1.084       .  S
C711       C1528   1.407       .  A
C711        O716   1.372       .  S
C712        C713   1.405       .  A
C712       C1527   1.406   1_554  A
C713        C714   1.404       .  A
C713        H717   1.084       .  S
C714       C1525   1.409       .  A
C714        O718   1.371       .  S
O716        H720   0.992       .  S
O718        H719   0.992       .  S
C721        C722   1.404       .  A
C721        C726   1.410       .  A
C722        C723   1.401       .  A
C722        H727   1.083       .  S
C723        C724   1.411       .  A
C723        O728   1.372       .  S
C724        C725   1.402       .  A
C725        C726   1.398       .  A
C725        H729   1.084       .  S
C726        O730   1.372       .  S
O728        H732   0.992       .  S
O730        H731   0.992       .  S
C733        C734   1.404       .  A
C733        C738   1.409       .  A
C734        C735   1.399       .  A
C734        H739   1.083       .  S
C735        C736   1.411       .  A
C735        O740   1.372       .  S
C736        C737   1.405       .  A
C737        C738   1.398       .  A
C737        H741   1.084       .  S
C738        O742   1.371       .  S
O740        H744   0.992       .  S
O742        H743   0.992       .  S
C745        C746   1.404       .  A
C745        C750   1.410       .  A
C746        C747   1.401       .  A
C746        H751   1.084       .  S
C747        C748   1.407       .  A
C747        O752   1.371       .  S
C748        C749   1.404       .  A
C749        C750   1.403       .  A
C749        H753   1.084       .  S
C750        O754   1.371       .  S
O752        H756   0.992       .  S
O754        H755   0.991       .  S
C757        C758   1.404       .  A
C757        C762   1.408       .  A
C758        C759   1.400   1_565  A
C758        H763   1.084       .  S
C759        C760   1.409       .  A
C759        O764   1.372       .  S
C760        C761   1.405       .  A
C761        C762   1.403   1_545  A
C761        H765   1.084       .  S
C762        O766   1.372       .  S
O764        H768   0.992       .  S
O766        H767   0.990       .  S
C769        C774   1.408       .  A
C769       C1586   1.403       .  A
C770        C771   1.400       .  A
C770       C1585   1.403       .  A
C770        H775   1.084       .  S
C771       C1588   1.409       .  A
C771        O776   1.372       .  S
C772        C773   1.404       .  A
C772       C1587   1.409       .  A
C773        C774   1.402       .  A
C773        H777   1.084       .  S
C774        O778   1.372       .  S
O776        H780   0.992       .  S
O778        H779   0.992       .  S
C781        C782   1.403       .  A
C781        C786   1.409       .  A
C782        C783   1.399       .  A
C782        H787   1.084       .  S
C783        C784   1.407       .  A
C783        O788   1.372       .  S
C784        C785   1.404       .  A
C785        C786   1.407       .  A
C785        H789   1.084       .  S
C786        O790   1.374       .  S
O788        H792   0.992       .  S
O790        H791   0.991       .  S
C793        C794   1.403       .  A
C793        C798   1.411       .  A
C794        C795   1.402       .  A
C794        H799   1.084       .  S
C795        C796   1.409       .  A
C795        O800   1.372       .  S
C796        C797   1.403       .  A
C797        C798   1.400       .  A
C797        H801   1.084       .  S
C798        O802   1.372       .  S
O800        H804   0.991       .  S
O802        H803   0.992       .  S
C805        C810   1.412       .  A
C805       C1622   1.407       .  A
C806        C807   1.402   1_565  A
C806       C1621   1.406       .  A
C806        H811   1.084       .  S
C807       C1624   1.411       .  A
C807        O812   1.372       .  S
C808        C809   1.403       .  A
C808       C1623   1.411       .  A
C809        C810   1.396   1_545  A
C809        H813   1.084       .  S
C810        O814   1.372       .  S
O812        H816   0.992       .  S
O814        H815   0.992       .  S
O817        V825   1.906       .  S
O817        C827   1.266       .  A
O818        C828   1.265       .  A
O819        V825   1.905       .  S
O820        C830   1.266       .  A
O822        V826   1.894       .  S
O822        C829   1.264       .  A
O823        V826   1.900   1_556  S
O823        C828   1.265       .  A
O824        C827   1.264       .  A
C827       C1609   1.481       .  S
C828       C1597   1.476       .  S
C829       C1621   1.483       .  S
C830       C1585   1.475       .  S
O831        V839   1.899       .  S
O831        C841   1.264       .  A
O832        V839   1.895       .  S
O832        C842   1.263       .  A
O833        V839   1.898       .  S
O833        C843   1.264       .  A
O834        V839   1.900       .  S
O834        C844   1.265       .  A
O835        V840   1.902       .  S
O835        C844   1.265       .  A
O836        V840   1.902       .  S
O836        C843   1.264       .  A
O837        V840   1.904       .  S
O837        C842   1.265       .  A
O838        V840   1.904       .  S
O838        C841   1.265       .  A
V839        V840   2.088       .  T
C841       C1573   1.479       .  S
C842       C1561   1.473       .  S
C843       C1600   1.475       .  S
C844       C1612   1.478       .  S
O845        V853   1.904       .  S
O845        C855   1.265       .  A
O847        C857   1.264       .  A
O848        V853   1.904   1_556  S
O848        C858   1.266       .  A
O849        V854   1.894   1_556  S
O849        C858   1.263       .  A
O850        C857   1.264       .  A
O851        V854   1.893       .  S
O851        C856   1.263       .  A
V853        V854   2.086       .  T
C855       C1624   1.481       .  S
C856       C1525   1.479       .  S
C857       C1549   1.478       .  S
C858       C1537   1.479       .  S
O859        V867   1.900       .  S
O859        C869   1.265       .  A
O860        V867   1.901       .  S
O860        C870   1.265       .  A
O861        V867   1.898       .  S
O861        C871   1.264       .  A
O862        V867   1.898       .  S
O862        C872   1.264       .  A
O863        V868   1.905       .  S
O863        C872   1.266       .  A
O864        V868   1.912       .  S
O864        C871   1.267       .  A
O865        V868   1.897       .  S
O865        C870   1.264       .  A
O866        V868   1.896       .  S
O866        C869   1.264       .  A
V867        V868   2.085       .  T
C869       C1552   1.480       .  S
C870       C1540   1.479       .  S
C871       C1513   1.482       .  S
C872       C1576   1.481       .  S
O874        V881   1.902       .  S
O874        C884   1.265       .  A
O875        V881   1.896   1_556  S
O875        C885   1.264       .  A
O876        C886   1.266       .  A
O877        C886   1.262       .  A
O878        V882   1.891   1_556  S
O878        C885   1.263       .  A
O880        V882   1.896       .  S
O880        C883   1.263       .  A
V881        V882   2.085       .  T
C883       C1468   1.472       .  S
C884       C1504   1.486       .  S
C885       C1480   1.479       .  S
C886       C1489   1.478       .  S
O887        V895   1.901       .  S
O887        C897   1.266       .  A
O888        V895   1.899       .  S
O888        C898   1.264       .  A
O889        V895   1.894       .  S
O889        C899   1.263       .  A
O890        V895   1.889       .  S
O890        C900   1.262       .  A
O891        V896   1.901       .  S
O891        C900   1.266       .  A
O892        V896   1.895       .  S
O892        C899   1.265       .  A
O893        V896   1.896       .  S
O893        C898   1.263       .  A
O894        V896   1.895       .  S
O894        C897   1.264       .  A
V895        V896   2.085       .  T
C897       C1453   1.485       .  S
C898       C1441   1.468       .  S
C899       C1477   1.480       .  S
C900       C1492   1.479       .  S
O901        V909   1.898       .  S
O901        C911   1.264       .  A
O903        C913   1.266       .  A
O904        V909   1.894   1_556  S
O904        C914   1.264       .  A
O905        V910   1.894   1_556  S
O905        C914   1.264       .  A
O906        C913   1.263       .  A
O907        V910   1.899       .  S
O907        C912   1.264       .  A
V909        V910   2.086       .  T
C911       C1501   1.485   1_455  S
C912       C1405   1.478       .  S
C913       C1432   1.482       .  S
C914       C1420   1.480       .  S
O915        V923   1.896       .  S
O915        C925   1.263       .  A
O916        V923   1.894       .  S
O916        C926   1.264       .  A
O917        V923   1.890       .  S
O917        C927   1.263       .  A
O918        V923   1.894       .  S
O918        C928   1.264       .  A
O919        V924   1.895       .  S
O919        C928   1.264       .  A
O920        V924   1.902       .  S
O920        C927   1.265       .  A
O921        V924   1.904       .  S
O921        C926   1.266       .  A
O922        V924   1.904       .  S
O922        C925   1.266       .  A
V923        V924   2.084       .  T
C925       C1393   1.476       .  S
C926       C1456   1.485   1_455  S
C927       C1429   1.482       .  S
C928       C1417   1.480       .  S
O930        V937   1.897       .  S
O930        C940   1.265       .  A
O931        V937   1.897       .  S
O931        C941   1.264       .  A
O932        C942   1.263       .  A
O933        C942   1.266       .  A
O934        V938   1.899       .  S
O934        C941   1.264       .  A
O936        V938   1.900       .  S
O936        C939   1.264       .  A
V937        V938   2.087       .  T
C939       C1345   1.477       .  S
C940       C1381   1.482       .  S
C941       C1357   1.476       .  S
C942       C1372   1.479       .  S
O943        V951   1.893       .  S
O943        C953   1.264       .  A
O944        V951   1.900       .  S
O944        C954   1.264       .  A
O945        V951   1.899       .  S
O945        C955   1.264       .  A
O946        V951   1.899       .  S
O946        C956   1.265       .  A
O947        V952   1.902       .  S
O947        C956   1.265       .  A
O948        V952   1.899       .  S
O948        C955   1.264       .  A
O949        V952   1.902       .  S
O949        C954   1.265       .  A
O950        V952   1.909       .  S
O950        C953   1.266       .  A
V951        V952   2.086       .  T
C953       C1336   1.484       .  S
C954       C1321   1.478       .  S
C955       C1360   1.476       .  S
C956       C1369   1.481       .  S
O957        V965   1.915       .  S
O957        C967   1.268       .  A
O959        C969   1.265       .  A
O960        V965   1.901       .  S
O960        C970   1.265       .  A
O961        V966   1.898       .  S
O961        C970   1.264       .  A
O962        C969   1.265       .  A
O963        V966   1.894       .  S
O963        C968   1.263       .  A
V965        V966   2.081       .  T
C967       C1384   1.486       .  S
C968       C1285   1.479       .  S
C969       C1309   1.481       .  S
C970       C1297   1.480       .  S
O971        V979   1.909       .  S
O971        C981   1.266       .  A
O972        V979   1.909       .  S
O972        C982   1.266       .  A
O973        V979   1.902       .  S
O973        C983   1.265       .  A
O974        V979   1.900       .  S
O974        C984   1.264       .  A
O975        V980   1.898       .  S
O975        C984   1.264       .  A
O976        V980   1.897       .  S
O976        C983   1.264       .  A
O977        V980   1.894       .  S
O977        C982   1.264       .  A
O978        V980   1.898       .  S
O978        C981   1.264       .  A
V979        V980   2.087       .  T
C981       C1273   1.479       .  S
C982       C1333   1.485       .  S
C983       C1312   1.479       .  S
C984       C1300   1.477       .  S
O985        V993   1.910       .  S
O986        V993   1.903       .  S
O987        V993   1.899       .  S
O987        C997   1.264       .  A
O988        V993   1.899       .  S
O988        C998   1.264       .  A
O989        V994   1.905       .  S
O990        V994   1.909       .  S
O991        V994   1.894       .  S
O991        C996   1.263   1_556  A
O992        V994   1.893       .  S
O992        C995   1.262   1_556  A
C995       C1261   1.470       .  S
C998       C1528   1.480       .  S
O999       V1007   1.913       .  S
O999       C1009   1.267       .  A
O1000      V1007   1.917       .  S
O1000      C1010   1.268       .  A
O1001      V1007   1.894       .  S
O1001      C1011   1.262       .  A
O1002      V1007   1.897       .  S
O1002      C1012   1.264       .  A
O1003      V1008   1.898       .  S
O1003      C1012   1.264       .  A
O1004      V1008   1.901       .  S
O1004      C1011   1.265       .  A
O1005      V1008   1.892       .  S
O1005      C1010   1.263       .  A
O1006      V1008   1.898       .  S
O1006      C1009   1.264       .  A
V1007      V1008   2.086       .  T
C1009      C1516   1.482       .  S
C1010      C1039   1.472       .  S
C1011      C1066   1.463       .  S
C1012      C1249   1.472       .  S
O1013      V1021   1.895       .  S
O1014      V1021   1.899       .  S
O1015      V1021   1.900       .  S
O1015      C1025   1.265       .  A
O1016      V1021   1.899       .  S
O1016      C1026   1.263       .  A
O1017      V1022   1.898       .  S
O1018      V1022   1.895       .  S
O1019      V1022   1.909       .  S
O1019      C1024   1.266   1_556  A
O1020      V1022   1.909       .  S
O1020      C1023   1.267   1_556  A
C1023      C1588   1.476       .  S
O1027      V1035   1.903       .  S
O1027      C1037   1.265       .  A
O1028      V1035   1.897       .  S
O1028      C1038   1.262       .  A
O1029      V1035   1.913       .  S
O1029      C1039   1.266       .  A
O1030      V1035   1.911       .  S
O1030      C1040   1.268       .  A
O1031      V1036   1.892       .  S
O1031      C1040   1.261       .  A
O1032      V1036   1.895       .  S
O1032      C1039   1.264       .  A
O1033      V1036   1.898       .  S
O1033      C1038   1.264       .  A
O1034      V1036   1.901       .  S
O1034      C1037   1.264       .  A
V1035      V1036   2.089       .  T
C1037      C1396   1.475       .  S
C1038      C1094   1.462       .  S
C1040      C1564   1.476       .  S
O1041      V1049   1.905       .  S
O1042      V1049   1.902       .  S
O1043      V1049   1.902       .  S
O1043      C1053   1.264       .  A
O1044      V1049   1.898       .  S
O1044      C1054   1.264       .  A
O1045      V1050   1.902       .  S
O1046      V1050   1.896       .  S
O1047      V1050   1.899       .  S
O1047      C1052   1.264       .  A
O1048      V1050   1.896       .  S
O1048      C1051   1.263       .  A
C1051      C1348   1.473       .  S
C1054      C1237   1.472       .  S
O1055      V1063   1.900       .  S
O1055      C1065   1.264       .  A
O1056      V1063   1.899       .  S
O1056      C1066   1.265       .  A
O1057      V1063   1.894       .  S
O1057      C1067   1.263       .  A
O1058      V1063   1.899       .  S
O1058      C1068   1.264       .  A
O1059      V1064   1.905       .  S
O1059      C1068   1.265       .  A
O1060      V1064   1.909       .  S
O1060      C1067   1.266       .  A
O1061      V1064   1.897       .  S
O1061      C1066   1.263       .  A
O1062      V1064   1.903       .  S
O1062      C1065   1.265       .  A
V1063      V1064   2.086       .  T
C1065      C1225   1.477       .  S
C1067      C1095   1.468       .  S
C1068      C1324   1.475       .  S
O1069      V1077   1.897       .  S
O1070      V1077   1.893       .  S
O1071      V1077   1.906       .  S
O1071      C1081   1.266       .  A
O1072      V1077   1.912       .  S
O1072      C1082   1.267       .  A
O1073      V1078   1.894       .  S
O1074      V1078   1.896       .  S
O1075      V1078   1.902       .  S
O1075      C1080   1.265   1_556  A
O1076      V1078   1.903       .  S
O1076      C1079   1.265   1_556  A
C1079      C1465   1.472       .  S
O1083      V1091   1.894       .  S
O1083      C1093   1.263       .  A
O1084      V1091   1.892       .  S
O1084      C1094   1.262       .  A
O1085      V1091   1.908       .  S
O1085      C1095   1.265       .  A
O1086      V1091   1.912       .  S
O1086      C1096   1.267       .  A
O1087      V1092   1.898       .  S
O1087      C1096   1.263       .  A
O1088      V1092   1.896       .  S
O1088      C1095   1.264       .  A
O1089      V1092   1.903       .  S
O1089      C1094   1.265       .  A
O1090      V1092   1.900       .  S
O1090      C1093   1.264       .  A
V1091      V1092   2.088       .  T
C1093      C1444   1.471       .  S
C1096      C1276   1.480       .  S
O1097      V1105   1.902       .  S
O1097      C1107   1.264       .  A
O1099      C1109   1.263       .  A
O1100      V1105   1.893       .  S
O1100      C1110   1.263       .  A
O1101      V1106   1.899       .  S
O1101      C1110   1.265       .  A
O1102      C1109   1.265       .  A
O1103      V1106   1.898       .  S
O1103      C1108   1.265       .  A
V1105      V1106   2.083       .  T
C1107      C1264   1.472       .  S
C1108      C1213   1.484   1_455  S
C1109      C1189   1.481       .  S
C1110      C1201   1.477       .  S
O1111      V1119   1.904       .  S
O1111      C1121   1.266       .  A
O1112      V1119   1.902       .  S
O1112      C1122   1.265       .  A
O1113      V1119   1.896       .  S
O1113      C1123   1.264       .  A
O1114      V1119   1.893       .  S
O1114      C1124   1.263       .  A
O1115      V1120   1.900       .  S
O1115      C1124   1.265       .  A
O1116      V1120   1.897       .  S
O1116      C1123   1.265       .  A
O1117      V1120   1.894       .  S
O1117      C1122   1.263       .  A
O1118      V1120   1.896       .  S
O1118      C1121   1.264       .  A
V1119      V1120   2.084       .  T
C1121      C1177   1.485       .  S
C1122      C1252   1.473       .  S
C1123      C1192   1.481       .  S
C1124      C1204   1.478       .  S
O1125      V1133   1.898       .  S
O1125      C1135   1.264       .  A
O1127      C1137   1.264       .  A
O1128      V1133   1.899       .  S
O1128      C1138   1.265       .  A
O1129      V1134   1.891       .  S
O1129      C1138   1.263       .  A
O1130      C1137   1.264       .  A
O1131      V1134   1.903       .  S
O1131      C1136   1.265       .  A
V1133      V1134   2.085       .  T
C1136      C1240   1.473       .  S
C1137      C1165   1.479       .  S
C1138      C1153   1.478       .  S
O1139      V1147   1.903       .  S
O1139      C1149   1.265       .  A
O1140      V1147   1.901       .  S
O1140      C1150   1.266       .  A
O1141      V1147   1.897       .  S
O1141      C1151   1.264       .  A
O1142      V1147   1.899       .  S
O1142      C1152   1.265       .  A
O1143      V1148   1.892       .  S
O1143      C1152   1.263       .  A
O1144      V1148   1.898       .  S
O1144      C1151   1.265       .  A
O1145      V1148   1.900       .  S
O1145      C1150   1.265       .  A
O1146      V1148   1.899       .  S
O1146      C1149   1.264       .  A
V1147      V1148   2.085       .  T
C1149      C1228   1.476       .  S
C1150      C1180   1.483       .  S
C1151      C1168   1.480       .  S
C1152      C1156   1.478       .  S
C1153      C1154   1.404       .  A
C1153      C1158   1.411       .  A
C1154      C1155   1.398       .  A
C1154      H1159   1.081       .  S
C1155      C1156   1.409       .  A
C1155      O1160   1.371       .  S
C1156      C1157   1.404       .  A
C1157      C1158   1.397       .  A
C1157      H1161   1.084       .  S
C1158      O1162   1.372       .  S
O1160      H1164   0.992       .  S
O1162      H1163   0.992       .  S
C1165      C1166   1.404       .  A
C1165      C1170   1.410       .  A
C1166      C1167   1.399       .  A
C1166      H1171   1.084       .  S
C1167      C1168   1.410       .  A
C1167      O1172   1.370       .  S
C1168      C1169   1.404       .  A
C1169      C1170   1.399       .  A
C1169      H1173   1.083       .  S
C1170      O1174   1.372       .  S
O1172      H1176   0.989       .  S
O1174      H1175   0.992       .  S
C1177      C1178   1.406   1_455  A
C1177      C1182   1.413   1_455  A
C1178      C1179   1.401       .  A
C1178      H1183   1.083       .  S
C1179      C1180   1.411       .  A
C1179      O1184   1.372       .  S
C1180      C1181   1.403       .  A
C1181      C1182   1.399       .  A
C1181      H1185   1.082       .  S
C1182      O1186   1.372   1_655  S
O1184      H1188   0.992       .  S
O1186      H1187   0.992       .  S
C1189      C1190   1.403       .  A
C1189      C1194   1.410       .  A
C1190      C1191   1.397       .  A
C1190      H1195   1.080       .  S
C1191      C1192   1.410       .  A
C1191      O1196   1.371       .  S
C1192      C1193   1.406       .  A
C1193      C1194   1.399       .  A
C1193      H1197   1.083       .  S
C1194      O1198   1.372       .  S
O1196      H1200   0.992       .  S
O1198      H1199   0.992       .  S
C1201      C1202   1.404       .  A
C1201      C1206   1.410       .  A
C1202      C1203   1.398       .  A
C1202      H1207   1.084       .  S
C1203      C1204   1.409       .  A
C1203      O1208   1.370       .  S
C1204      C1205   1.404       .  A
C1205      C1206   1.397       .  A
C1205      H1209   1.084       .  S
C1206      O1210   1.372       .  S
O1208      H1212   0.992       .  S
O1210      H1211   0.992       .  S
C1213      C1214   1.405       .  A
C1214      C1215   1.399       .  A
C1214      H1219   1.083       .  S
C1215      C1216   1.410       .  A
C1215      O1220   1.371       .  S
C1217      C1218   1.401       .  A
C1217      H1221   1.083       .  S
C1218      O1222   1.371       .  S
O1220      H1224   0.992       .  S
O1222      H1223   0.992   1_556  S
C1225      C1226   1.405       .  A
C1225      C1230   1.409       .  A
C1226      C1227   1.402       .  A
C1226      H1231   1.084       .  S
C1227      C1228   1.408       .  A
C1227      O1232   1.372       .  S
C1228      C1229   1.404       .  A
C1229      C1230   1.400       .  A
C1229      H1233   1.084       .  S
C1230      O1234   1.372       .  S
O1232      H1236   0.992       .  S
O1234      H1235   0.992       .  S
C1237      C1242   1.408       .  A
C1238      C1239   1.400       .  A
C1238      H1243   1.084       .  S
C1239      C1240   1.407   1_554  A
C1239      O1244   1.372       .  S
C1241      C1242   1.400       .  A
C1241      H1245   1.084       .  S
C1242      O1246   1.372       .  S
O1244      H1248   0.992       .  S
O1246      H1247   0.992       .  S
C1249      C1250   1.403       .  A
C1249      C1254   1.408       .  A
C1250      C1251   1.400       .  A
C1250      H1255   1.084       .  S
C1251      C1252   1.408       .  A
C1251      O1256   1.371       .  S
C1252      C1253   1.404       .  A
C1253      C1254   1.399       .  A
C1253      H1257   1.084       .  S
C1254      O1258   1.372       .  S
O1256      H1260   0.992       .  S
O1258      H1259   0.992       .  S
C1261      C1266   1.406       .  A
C1262      C1263   1.403       .  A
C1262      H1267   1.083       .  S
C1263      C1264   1.409       .  A
C1263      O1268   1.372       .  S
C1265      C1266   1.400       .  A
C1265      H1269   1.084       .  S
C1266      O1270   1.372       .  S
O1268      H1272   0.992       .  S
O1270      H1271   0.992       .  S
C1273      C1274   1.403       .  A
C1273      C1278   1.410       .  A
C1274      C1275   1.401       .  A
C1274      H1279   1.084       .  S
C1275      C1276   1.409       .  A
C1275      O1280   1.371       .  S
C1276      C1277   1.405       .  A
C1277      C1278   1.405       .  A
C1277      H1281   1.084       .  S
C1278      O1282   1.372       .  S
O1280      H1284   0.991       .  S
O1282      H1283   0.992       .  S
C1285      C1290   1.409       .  A
C1286      C1287   1.406       .  A
C1286      H1291   1.084       .  S
C1287      O1292   1.371       .  S
C1288      C1289   1.402       .  A
C1289      C1290   1.399       .  A
C1289      H1293   1.084       .  S
C1290      O1294   1.372       .  S
O1292      H1296   0.992       .  S
O1294      H1295   0.992       .  S
C1297      C1298   1.404       .  A
C1297      C1302   1.410       .  A
C1298      C1299   1.399       .  A
C1298      H1303   1.084       .  S
C1299      C1300   1.409       .  A
C1299      O1304   1.372       .  S
C1300      C1301   1.404       .  A
C1301      C1302   1.401       .  A
C1301      H1305   1.083       .  S
C1302      O1306   1.372       .  S
O1304      H1308   0.992       .  S
O1306      H1307   0.992       .  S
C1309      C1310   1.406       .  A
C1309      C1314   1.410       .  A
C1310      C1311   1.407       .  A
C1310      H1315   1.084       .  S
C1311      C1312   1.409       .  A
C1311      O1316   1.376       .  S
C1312      C1313   1.403       .  A
C1313      C1314   1.398       .  A
C1313      H1317   1.084       .  S
C1314      O1318   1.372       .  S
O1316      H1320   0.991       .  S
O1318      H1319   0.992       .  S
C1321      C1322   1.404       .  A
C1321      C1326   1.410       .  A
C1322      C1323   1.401       .  A
C1322      H1327   1.084       .  S
C1323      C1324   1.408       .  A
C1323      O1328   1.372       .  S
C1324      C1325   1.403       .  A
C1325      C1326   1.401       .  A
C1325      H1329   1.084       .  S
C1326      O1330   1.372       .  S
O1328      H1332   0.992       .  S
O1330      H1331   0.992       .  S
C1333      C1334   1.407   1_565  A
C1333      C1338   1.410   1_565  A
C1334      C1335   1.406       .  A
C1334      H1339   1.084   1_545  S
C1335      C1336   1.411       .  A
C1335      O1340   1.371       .  S
C1336      C1337   1.404       .  A
C1337      C1338   1.397       .  A
C1337      H1341   1.084       .  S
C1338      O1342   1.372   1_545  S
O1340      H1344   0.992       .  S
O1342      H1343   0.992       .  S
C1345      C1350   1.409       .  A
C1346      C1347   1.402       .  A
C1346      H1351   1.084       .  S
C1347      O1352   1.372       .  S
C1348      C1349   1.403       .  A
C1349      C1350   1.400       .  A
C1349      H1353   1.084       .  S
C1350      O1354   1.372       .  S
O1352      H1356   0.992       .  S
O1354      H1355   0.992       .  S
C1357      C1358   1.403       .  A
C1357      C1362   1.409       .  A
C1358      C1359   1.403       .  A
C1358      H1363   1.084       .  S
C1359      C1360   1.409       .  A
C1359      O1364   1.374       .  S
C1360      C1361   1.403       .  A
C1361      C1362   1.399       .  A
C1361      H1365   1.084       .  S
C1362      O1366   1.372       .  S
O1364      H1368   0.991       .  S
O1366      H1367   0.992       .  S
C1369      C1370   1.405       .  A
C1369      C1374   1.410       .  A
C1370      C1371   1.402       .  A
C1370      H1375   1.084       .  S
C1371      C1372   1.410       .  A
C1371      O1376   1.371       .  S
C1372      C1373   1.404       .  A
C1373      C1374   1.400       .  A
C1373      H1377   1.084       .  S
C1374      O1378   1.372       .  S
O1376      H1380   0.992       .  S
O1378      H1379   0.992       .  S
C1381      C1382   1.401   1_556  A
C1382      C1383   1.396   1_545  A
C1382      H1387   1.084       .  S
C1383      C1384   1.412   1_554  A
C1383      O1388   1.372       .  S
C1385      C1386   1.409   1_565  A
C1385      H1389   1.084       .  S
C1386      O1390   1.372       .  S
O1388      H1392   0.992       .  S
O1390      H1391   0.990       .  S
C1393      C1394   1.403       .  A
C1393      C1398   1.410       .  A
C1394      C1395   1.402       .  A
C1394      H1399   1.084       .  S
C1395      C1396   1.408       .  A
C1395      O1400   1.371       .  S
C1396      C1397   1.403       .  A
C1397      C1398   1.401       .  A
C1397      H1401   1.084       .  S
C1398      O1402   1.372       .  S
O1400      H1404   0.991       .  S
O1402      H1403   0.992       .  S
C1405      C1406   1.406   1_554  A
C1406      C1407   1.400       .  A
C1406      H1411   1.084       .  S
C1407      C1408   1.406   1_556  A
C1407      O1412   1.372       .  S
C1409      C1410   1.401       .  A
C1409      H1413   1.084       .  S
C1410      O1414   1.371       .  S
O1412      H1416   0.992       .  S
O1414      H1415   0.992       .  S
C1417      C1418   1.404       .  A
C1417      C1422   1.411       .  A
C1418      C1419   1.396       .  A
C1418      H1423   1.082       .  S
C1419      C1420   1.410       .  A
C1419      O1424   1.370       .  S
C1420      C1421   1.405       .  A
C1421      C1422   1.398       .  A
C1421      H1425   1.083       .  S
C1422      O1426   1.371       .  S
O1424      H1428   0.992       .  S
O1426      H1427   0.992       .  S
C1429      C1430   1.404       .  A
C1429      C1434   1.412       .  A
C1430      C1431   1.401       .  A
C1430      H1435   1.083       .  S
C1431      C1432   1.414       .  A
C1431      O1436   1.372       .  S
C1432      C1433   1.403       .  A
C1433      C1434   1.396       .  A
C1433      H1437   1.084       .  S
C1434      O1438   1.370       .  S
O1436      H1440   0.992       .  S
O1438      H1439   0.992       .  S
C1441      C1442   1.402       .  A
C1441      C1446   1.407       .  A
C1442      C1443   1.400       .  A
C1442      H1447   1.084       .  S
C1443      C1444   1.407       .  A
C1443      O1448   1.371       .  S
C1444      C1445   1.404       .  A
C1445      C1446   1.398       .  A
C1445      H1449   1.084       .  S
C1446      O1450   1.372       .  S
O1448      H1452   0.991       .  S
O1450      H1451   0.992       .  S
C1453      C1454   1.406       .  A
C1453      C1458   1.412       .  A
C1454      C1455   1.401       .  A
C1454      H1459   1.083       .  S
C1455      C1456   1.412       .  A
C1455      O1460   1.371       .  S
C1456      C1457   1.406       .  A
C1457      C1458   1.397       .  A
C1457      H1461   1.083       .  S
C1458      O1462   1.371       .  S
O1460      H1464   0.992       .  S
O1462      H1463   0.992       .  S
C1465      C1470   1.408   1_554  A
C1466      C1467   1.399       .  A
C1466      H1471   1.084       .  S
C1467      O1472   1.372       .  S
C1468      C1469   1.404   1_554  A
C1469      C1470   1.402       .  A
C1469      H1473   1.084       .  S
C1470      O1474   1.372       .  S
O1472      H1476   0.992       .  S
O1474      H1475   0.992       .  S
C1477      C1478   1.403       .  A
C1477      C1482   1.412       .  A
C1478      C1479   1.395       .  A
C1478      H1483   1.081       .  S
C1479      C1480   1.410       .  A
C1479      O1484   1.371       .  S
C1480      C1481   1.405       .  A
C1481      C1482   1.399       .  A
C1481      H1485   1.083       .  S
C1482      O1486   1.371       .  S
O1484      H1488   0.992       .  S
O1486      H1487   0.992       .  S
C1489      C1490   1.403       .  A
C1489      C1494   1.412       .  A
C1490      C1491   1.396       .  A
C1490      H1495   1.084       .  S
C1491      C1492   1.412       .  A
C1491      O1496   1.372       .  S
C1492      C1493   1.403       .  A
C1493      C1494   1.399       .  A
C1493      H1497   1.082       .  S
C1494      O1498   1.372       .  S
O1496      H1500   0.992       .  S
O1498      H1499   0.992       .  S
C1501      C1506   1.411   1_554  A
C1502      C1503   1.399       .  A
C1502      H1507   1.083       .  S
C1503      O1508   1.371       .  S
C1504      C1505   1.405   1_554  A
C1505      C1506   1.399       .  A
C1505      H1509   1.082       .  S
C1506      O1510   1.371       .  S
O1508      H1512   0.992       .  S
O1510      H1511   0.992       .  S
C1513      C1514   1.404       .  A
C1513      C1518   1.410       .  A
C1514      C1515   1.401       .  A
C1514      H1519   1.084       .  S
C1515      C1516   1.410       .  A
C1515      O1520   1.372       .  S
C1516      C1517   1.405       .  A
C1517      C1518   1.406       .  A
C1517      H1521   1.083       .  S
C1518      O1522   1.372       .  S
O1520      H1524   0.992       .  S
O1522      H1523   0.992       .  S
C1525      C1526   1.405   1_554  A
C1526      C1527   1.399       .  A
C1526      H1531   1.084       .  S
C1527      O1532   1.372       .  S
C1528      C1529   1.407       .  A
C1529      C1530   1.404       .  A
C1529      H1533   1.084       .  S
C1530      O1534   1.371       .  S
O1532      H1536   0.992       .  S
O1534      H1535   0.992       .  S
C1537      C1538   1.404       .  A
C1537      C1542   1.411       .  A
C1538      C1539   1.401       .  A
C1538      H1543   1.083       .  S
C1539      C1540   1.411       .  A
C1539      O1544   1.371       .  S
C1540      C1541   1.403       .  A
C1541      C1542   1.399       .  A
C1541      H1545   1.084       .  S
C1542      O1546   1.372       .  S
O1544      H1548   0.992       .  S
O1546      H1547   0.992       .  S
C1549      C1550   1.403       .  A
C1549      C1554   1.410       .  A
C1550      C1551   1.399       .  A
C1550      H1555   1.084       .  S
C1551      C1552   1.410       .  A
C1551      O1556   1.371       .  S
C1552      C1553   1.405       .  A
C1553      C1554   1.399       .  A
C1553      H1557   1.084       .  S
C1554      O1558   1.372       .  S
O1556      H1560   0.992       .  S
O1558      H1559   0.992       .  S
C1561      C1562   1.402       .  A
C1561      C1566   1.408       .  A
C1562      C1563   1.400       .  A
C1562      H1567   1.084       .  S
C1563      C1564   1.408       .  A
C1563      O1568   1.372       .  S
C1564      C1565   1.404       .  A
C1565      C1566   1.402       .  A
C1565      H1569   1.084       .  S
C1566      O1570   1.371       .  S
O1568      H1572   0.991       .  S
O1570      H1571   0.991       .  S
C1573      C1574   1.403       .  A
C1573      C1578   1.409       .  A
C1574      C1575   1.400   1_565  A
C1574      H1579   1.084       .  S
C1575      C1576   1.410       .  A
C1575      O1580   1.372       .  S
C1576      C1577   1.405       .  A
C1577      C1578   1.404   1_545  A
C1577      H1581   1.084       .  S
C1578      O1582   1.372       .  S
O1580      H1584   0.992       .  S
O1582      H1583   0.990       .  S
C1585      C1590   1.408   1_554  A
C1586      C1587   1.400       .  A
C1586      H1591   1.084       .  S
C1587      O1592   1.372       .  S
C1588      C1589   1.404   1_554  A
C1589      C1590   1.403       .  A
C1589      H1593   1.084       .  S
C1590      O1594   1.372       .  S
O1592      H1596   0.992       .  S
O1594      H1595   0.991       .  S
C1597      C1598   1.403       .  A
C1597      C1602   1.409       .  A
C1598      C1599   1.399       .  A
C1598      H1603   1.084       .  S
C1599      C1600   1.408       .  A
C1599      O1604   1.372       .  S
C1600      C1601   1.403       .  A
C1601      C1602   1.406       .  A
C1601      H1605   1.084       .  S
C1602      O1606   1.375       .  S
O1604      H1608   0.992       .  S
O1606      H1607   0.991       .  S
C1609      C1610   1.404       .  A
C1609      C1614   1.411       .  A
C1610      C1611   1.405       .  A
C1610      H1615   1.084       .  S
C1611      C1612   1.410       .  A
C1611      O1616   1.373       .  S
C1612      C1613   1.403       .  A
C1613      C1614   1.400       .  A
C1613      H1617   1.084       .  S
C1614      O1618   1.372       .  S
O1616      H1620   0.991       .  S
O1618      H1619   0.992       .  S
C1621      C1626   1.412       .  A
C1622      C1623   1.404   1_565  A
C1622      H1627   1.084       .  S
C1623      O1628   1.372       .  S
C1624      C1625   1.403       .  A
C1625      C1626   1.396   1_545  A
C1625      H1629   1.084   1_554  S
C1626      O1630   1.372   1_554  S
O1628      H1632   0.992       .  S
O1630      H1631   0.992       .  S
