geometry optimzed in LAMMPS
_audit_creation_date              2020-12-01 
_audit_creation_method            'lammps2cif' 
_symmetry_space_group_name_H-M    'P1' 
_symmetry_Int_Tables_number       1 
_symmetry_cell_setting            triclinic 
loop_ 
_symmetry_equiv_pos_as_xyz 
  x,y,z 
_cell_length_a                    34.96789941 
_cell_length_b                    35.096464411466684 
_cell_length_c                    35.28406329584086 
_cell_angle_alpha                 90.02892983010142 
_cell_angle_beta                  90.15997466077705 
_cell_angle_gamma                 89.86728512934836 
loop_ 
_atom_site_label 
_atom_site_type_symbol 
_atom_site_fract_x 
_atom_site_fract_y 
_atom_site_fract_z 
_atom_site_charge 
O1          O  0.16547351  0.58579606  0.46144988    -0.85900
O2          O  0.21415479  0.63220148  0.49782358    -0.82900
C3          C  0.23066315  0.65139135  0.52282366     0.97600
O4          O  0.22031852  0.64822658  0.55734246    -0.83000
O5          O  0.13894204  0.66610112  0.56305632    -0.85600
C6          C  0.10301304  0.66091574  0.55987978     1.02100
O7          O  0.09060259  0.62729278  0.55527825    -0.78400
O8          O  0.11242572  0.61225607  0.48292857    -0.78600
C9          C  0.13476261  0.60436936  0.45626091     1.02100
O10         O  0.18591764  0.52503666  0.51253935    -0.85900
O11         O  0.23774087  0.57120660  0.54821035    -0.82900
C12         C  0.23169049  0.56441293  0.58293895     0.97600
O13         O  0.20393536  0.57969971  0.59995691    -0.83000
O14         O  0.12876083  0.59974070  0.61099795    -0.85600
C15         C  0.11220176  0.56773580  0.60646512     1.02100
O16         O  0.11428961  0.55084839  0.57520254    -0.78400
O17         O  0.12550081  0.53428777  0.50002613    -0.78500
C18         C  0.15461506  0.51297569  0.49992758     1.02000
Cr19       Cr  0.19823405  0.57983321  0.50747489     1.93700
Cr20       Cr  0.17253515  0.62204090  0.57979836     1.93200
Cr21       Cr  0.11420448  0.58204142  0.52935133     1.39100
O22         O  0.16184345  0.59509677  0.53857365    -1.23600
O23         O  0.16386749  0.57777709  0.29575804    -0.85900
O24         O  0.11627100  0.53184405  0.25779990    -0.82900
C25         C  0.09776403  0.51542465  0.23225774     0.97600
O26         O  0.10117143  0.52627642  0.19802194    -0.83000
O27         O  0.08313543  0.60623601  0.19541308    -0.85600
C28         C  0.08716754  0.64183400  0.20024817     1.02100
O29         O  0.12052347  0.65540008  0.20489085    -0.78400
O30         O  0.13686074  0.63082707  0.27564750    -0.78600
C31         C  0.14414376  0.60750566  0.30157002     1.02100
O32         O  0.22416408  0.55855372  0.24369751    -0.85900
O33         O  0.17660927  0.50852262  0.20694214    -0.82900
C34         C  0.18189468  0.51365355  0.17180658     0.97600
O35         O  0.16880968  0.54309338  0.15573561    -0.83000
O36         O  0.14905172  0.61914014  0.14716519    -0.85600
C37         C  0.18102887  0.63585712  0.15197173     1.02100
O38         O  0.19795229  0.63381546  0.18330711    -0.78400
O39         O  0.21559628  0.61861715  0.25776890    -0.78500
C40         C  0.23672200  0.58928438  0.25698353     1.02000
Cr41       Cr  0.16913679  0.54682183  0.24865648     1.93700
Cr42       Cr  0.12712626  0.57437924  0.17708203     1.93200
Cr43       Cr  0.16702167  0.63126694  0.22930732     1.39100
O44         O  0.15437993  0.58398990  0.21840233    -1.23600
O45         O  0.28314959  0.14018512  0.57367933    -0.85900
O46         O  0.22646155  0.12762354  0.51971790    -0.82900
C47         C  0.22646640  0.09188971  0.52218470     0.97600
O48         O  0.20990849  0.07635014  0.55041874    -0.83000
O49         O  0.18027288  0.06933656  0.62659548    -0.85600
C50         C  0.20671958  0.06500060  0.65101567     1.02100
O51         O  0.23290996  0.08956631  0.65303398    -0.78400
O52         O  0.27677343  0.15095846  0.63509126    -0.78600
C53         C  0.29696512  0.14421561  0.60653084     1.02100
O54         O  0.24864193  0.20943780  0.59285591    -0.85900
O55         O  0.18697725  0.19180297  0.54896639    -0.82900
C56         C  0.15923800  0.17483925  0.53380945     0.97600
O57         O  0.15530784  0.13919856  0.53864855    -0.83000
O58         O  0.13428846  0.13694207  0.61429404    -0.85600
C59         C  0.13894808  0.14429122  0.64924123     1.02100
O60         O  0.17064084  0.13889305  0.66514974    -0.78400
O61         O  0.21467632  0.20124651  0.64397985    -0.78500
C62         C  0.23616428  0.22188965  0.62378105     1.02000
Cr63       Cr  0.23408712  0.16496988  0.56152404     1.93700
Cr64       Cr  0.17280345  0.10722427  0.58331560     1.93200
Cr65       Cr  0.22256472  0.14461676  0.64528405     1.39100
O66         O  0.20997363  0.13865531  0.59700144    -1.23600
O67         O  0.47262077  0.18802091  0.63497075    -0.85900
O68         O  0.53713859  0.23300469  0.63220520    -0.82900
C69         C  0.54211249  0.22853055  0.66703032     0.97600
O70         O  0.55672933  0.19729169  0.67844964    -0.83000
O71         O  0.57551706  0.11784127  0.67713437    -0.85600
C72         C  0.54725353  0.09653347  0.68527695     1.02100
O73         O  0.51764879  0.09729822  0.66494082    -0.78400
O74         O  0.46535635  0.12830009  0.61722912    -0.78600
C75         C  0.45230106  0.15864103  0.63164619     1.02100
O76         O  0.48341276  0.16896579  0.55807498    -0.85900
O77         O  0.55433634  0.20337348  0.56071682    -0.82900
C78         C  0.58710072  0.21338039  0.57182570     0.97600
O79         O  0.59833536  0.20524473  0.60535332    -0.83000
O80         O  0.60929254  0.12798926  0.60199163    -0.85600
C81         C  0.59785796  0.09547882  0.59117749     1.02100
O82         O  0.56659077  0.08216875  0.60266224    -0.78400
O83         O  0.51506453  0.11568964  0.55395316    -0.78500
C84         C  0.49268344  0.13991144  0.53953472     1.02000
Cr85       Cr  0.51377830  0.19517920  0.59799795     1.93700
Cr86       Cr  0.58209942  0.16164732  0.63973434     1.93200
Cr87       Cr  0.51777645  0.10934125  0.61017401     1.39100
O88         O  0.53807409  0.15492842  0.61622277    -1.23600
O89         O  0.60703390  0.44567876  0.15982607    -0.85900
O90         O  0.65105066  0.48583755  0.20661965    -0.82900
C91         C  0.66680161  0.51217278  0.22446421     0.97600
O92         O  0.66175343  0.54654334  0.21356642    -0.83000
O93         O  0.68172503  0.54999175  0.13416274    -0.85600
C94         C  0.67923596  0.54485308  0.09863336     1.02100
O95         O  0.64654635  0.53918879  0.08403622    -0.78400
O96         O  0.63612068  0.46762673  0.10913055    -0.78600
C97         C  0.62805629  0.44089895  0.13102913     1.02100
O98         O  0.54355549  0.49560297  0.17680799    -0.85900
O99         O  0.58695635  0.53382327  0.22838727    -0.82900
C100        C  0.57851919  0.56838480  0.22223507     0.97600
O101        O  0.59186587  0.58525644  0.19360460    -0.83000
O102        O  0.61226234  0.59519617  0.11888753    -0.85600
C103        C  0.58087111  0.58766807  0.10171106     1.02100
O104        O  0.56760051  0.55447753  0.10273977    -0.78400
O105        O  0.55524120  0.47898146  0.11831926    -0.78500
C106        C  0.53273102  0.48053618  0.14639540     1.02000
Cr107      Cr  0.59815963  0.49248502  0.19052539     1.93700
Cr108      Cr  0.63590320  0.56639794  0.16429188     1.93200
Cr109      Cr  0.60193286  0.51116517  0.10683458     1.39100
O110        O  0.61197754  0.52345848  0.15406359    -1.23600
O111        O  0.58923074  0.28307368  0.15186161    -0.85900
O112        O  0.54016139  0.24609253  0.10788862    -0.82900
C113        C  0.52396707  0.22122547  0.08836620     0.97600
O114        O  0.53445919  0.18649160  0.09129081    -0.83000
O115        O  0.61533290  0.18170964  0.07404588    -0.85600
C116        C  0.65114752  0.18593221  0.07871118     1.02100
O117        O  0.66425325  0.18824635  0.11213815    -0.78400
O118        O  0.64161490  0.26024315  0.12552775    -0.78600
C119        C  0.61912849  0.28719920  0.13206491     1.02100
O120        O  0.57025760  0.23251338  0.21392188    -0.85900
O121        O  0.51825691  0.19627820  0.16924359    -0.82900
C122        C  0.52320005  0.16099125  0.17478560     0.97600
O123        O  0.55092290  0.14385331  0.15938310    -0.83000
O124        O  0.62686332  0.13308485  0.14079999    -0.85600
C125        C  0.64362940  0.13807962  0.17267872     1.02100
O126        O  0.64176511  0.16981894  0.18894069    -0.78400
O127        O  0.63010166  0.24617929  0.20383463    -0.78500
C128        C  0.60131772  0.24610824  0.22538823     1.02000
Cr129      Cr  0.55701244  0.23699534  0.15960931     1.93700
Cr130      Cr  0.58252627  0.16419069  0.11781393     1.93200
Cr131      Cr  0.64096327  0.21509804  0.15694702     1.39100
O132        O  0.59318165  0.20552925  0.14459224    -1.23600
O133        O  0.65659939  0.90626196  0.54525718    -0.85900
O134        O  0.70904337  0.85678495  0.51715038    -0.82900
C135        C  0.72735617  0.83531917  0.49532289     0.97600
O136        O  0.71928842  0.83477846  0.45998424    -0.83000
O137        O  0.64086263  0.81370261  0.45102778    -0.85600
C138        C  0.60474025  0.81580188  0.45285969     1.02100
O139        O  0.58895074  0.84833867  0.45421998    -0.78400
O140        O  0.60792875  0.87210116  0.52536942    -0.78600
C141        C  0.62538374  0.88911034  0.55133334     1.02100
O142        O  0.67715287  0.96039572  0.48927267    -0.85900
O143        O  0.73339937  0.91265381  0.46250259    -0.82900
C144        C  0.73072338  0.91453668  0.42675013     0.97600
O145        O  0.70392650  0.89793609  0.40955373    -0.83000
O146        O  0.62975749  0.87598270  0.39586661    -0.85600
C147        C  0.61189591  0.90776377  0.39778713     1.02100
O148        O  0.60842128  0.92448995  0.42884558    -0.78400
O149        O  0.61676129  0.94907541  0.50029444    -0.78500
C150        C  0.64467288  0.97196940  0.49945848     1.02000
Cr151      Cr  0.69179973  0.90717928  0.50110569     1.93700
Cr152      Cr  0.67238974  0.85729210  0.43190014     1.93200
Cr153      Cr  0.60912792  0.89749194  0.47634049     1.39100
O154        O  0.65799231  0.88715338  0.46980916    -1.23600
O155        O  0.62245171  0.94220262  0.71978433    -0.85900
O156        O  0.63008261  0.98680848  0.78388369    -0.82900
C157        C  0.59516320  0.98183438  0.78870907     0.97600
O158        O  0.58445605  0.95023458  0.80282167    -0.83000
O159        O  0.58717945  0.87086450  0.82105937    -0.85600
C160        C  0.57890017  0.84787008  0.79446540     1.02100
O161        O  0.59910124  0.84743374  0.76474106    -0.78400
O162        O  0.64137385  0.88309770  0.71003388    -0.78600
C163        C  0.62191115  0.91204809  0.70040422     1.02100
O164        O  0.70162614  0.92504609  0.72421761    -0.85900
O165        O  0.70274322  0.95789563  0.79579618    -0.82900
C166        C  0.69262226  0.96718651  0.82885601     0.97600
O167        O  0.65996294  0.95759498  0.84177834    -0.83000
O168        O  0.66325887  0.88026090  0.85268321    -0.85600
C169        C  0.67554533  0.84850943  0.84032643     1.02100
O170        O  0.66638249  0.83649157  0.80801483    -0.78400
O171        O  0.71015604  0.87332678  0.75636769    -0.78500
C172        C  0.72345177  0.89884110  0.73503174     1.02000
Cr173      Cr  0.66292444  0.94968570  0.75764040     1.93700
Cr174      Cr  0.62469506  0.91449784  0.82659256     1.93200
Cr175      Cr  0.65381025  0.86361082  0.76114379     1.39100
O176        O  0.64688944  0.90862451  0.78217923    -1.23600
O177        O  0.21693749  0.84667359  0.09039551    -0.85900
O178        O  0.25676120  0.88874187  0.04275389    -0.82900
C179        C  0.28289772  0.90604277  0.02620524     0.97600
O180        O  0.31741572  0.90215400  0.03759872    -0.83000
O181        O  0.32204112  0.91848454  0.11905021    -0.85600
C182        C  0.31696098  0.91291713  0.15436367     1.02100
O183        O  0.31409169  0.87898681  0.16569611    -0.78400
O184        O  0.24171908  0.87293343  0.14153609    -0.78600
C185        C  0.21397827  0.86704791  0.12002672     1.02100
O186        O  0.26492152  0.78118238  0.07139309    -0.85900
O187        O  0.30380662  0.82418226  0.01994829    -0.82900
C188        C  0.33948519  0.81859146  0.02399924     0.97600
O189        O  0.35736929  0.83236267  0.05204930    -0.83000
O190        O  0.36721266  0.84737375  0.12916618    -0.85600
C191        C  0.35899050  0.81574501  0.14549563     1.02100
O192        O  0.32621309  0.80183482  0.14163957    -0.78400
O193        O  0.24921895  0.79298480  0.12983852    -0.88100
C194        C  0.24973955  0.77065985  0.10178827     1.02000
Cr195      Cr  0.26305973  0.83611033  0.05844233     1.93700
Cr196      Cr  0.33813352  0.87399209  0.08517724     1.93200
Cr197      Cr  0.28384522  0.83732348  0.14133733     1.39100
O198        O  0.29517343  0.84915280  0.09447092    -1.23600
O199        O  0.05660978  0.83052053  0.11269098    -0.85900
O200        O  0.01569034  0.78367826  0.15450158    -0.82900
C201        C  0.98920598  0.76670102  0.17080414     0.97600
O202        O  0.95480187  0.77803289  0.16587648    -0.83000
O203        O  0.95172632  0.85852904  0.18455834    -0.85600
C204        C  0.95730106  0.89408787  0.18092839     1.02100
O205        O  0.96202549  0.90754169  0.14797146    -0.78400
O206        O  0.03391467  0.88251146  0.13944471    -0.78600
C207        C  0.06096136  0.86035267  0.13255986     1.02100
O208        O  0.00824809  0.81331577  0.04781649    -0.85900
O209        O  0.96785669  0.76212953  0.09009445    -0.82900
C210        C  0.93286277  0.76833087  0.08256506     0.97600
O211        O  0.91619125  0.79710562  0.09629900    -0.83000
O212        O  0.90715642  0.87276260  0.11473162    -0.85600
C213        C  0.91510597  0.88930165  0.08335975     1.02100
O214        O  0.94822193  0.88682409  0.06995095    -0.78400
O215        O  0.02485888  0.87200570  0.05940980    -0.78500
C216        C  0.02412438  0.84353304  0.03730651     1.02000
Cr217      Cr  0.00977001  0.79977913  0.10220727     1.93700
Cr218      Cr  0.93541039  0.82729125  0.13933584     1.93200
Cr219      Cr  0.99110335  0.88390832  0.10474733     1.39100
O220        O  0.97869449  0.83670091  0.11543664    -1.23600
O221        O  0.41583397  0.94947086  0.34491549    -0.85900
O222        O  0.36523756  0.98527652  0.29869729    -0.82900
C223        C  0.34690962  0.01019424  0.28088800     0.97600
O224        O  0.34901371  0.04488582  0.29175593    -0.83000
O225        O  0.33281913  0.04964573  0.37319834    -0.85600
C226        C  0.33850969  0.04648750  0.40878619     1.02100
O227        O  0.37257740  0.04203050  0.42067859    -0.78400
O228        O  0.38963602  0.97018759  0.39782776    -0.78600
C229        C  0.40009742  0.94352109  0.37666449     1.02100
O230        O  0.47318352  0.00291151  0.32232584    -0.85900
O231        O  0.42380211  0.03700011  0.27341374    -0.82900
C232        C  0.43001415  0.07217004  0.27834958     0.97600
O233        O  0.41659389  0.08905232  0.30703931    -0.83000
O234        O  0.39837286  0.09891575  0.38307032    -0.85600
C235        C  0.43088830  0.09452331  0.39900470     1.02100
O236        O  0.44873419  0.06385430  0.39499948    -0.78400
O237        O  0.46732963  0.98895951  0.38221509    -0.78500
C238        C  0.48702958  0.98926571  0.35214241     1.02000
Cr239      Cr  0.41818457  0.99590566  0.31236977     1.93700
Cr240      Cr  0.37566345  0.06767682  0.33930074     1.93200
Cr241      Cr  0.41858826  0.01734601  0.39565383     1.39100
O242        O  0.40370235  0.02669468  0.34898588    -1.23600
O243        O  0.44433122  0.77000543  0.38194599    -0.85900
O244        O  0.49594467  0.70932950  0.37860341    -0.82900
C245        C  0.49241508  0.70590171  0.41360505     0.97600
O246        O  0.46224138  0.69005865  0.42591620    -0.83000
O247        O  0.38424833  0.66560181  0.42621407    -0.85600
C248        C  0.35910002  0.69128910  0.43161994     1.02100
O249        O  0.35619350  0.71872233  0.40872465    -0.78400
O250        O  0.38469231  0.77278886  0.36225582    -0.78600
C251        C  0.41269142  0.78733621  0.37991674     1.02100
O252        O  0.42780514  0.75788199  0.30480185    -0.85900
O253        O  0.46734991  0.68928771  0.30833894    -0.82900
C254        C  0.47981474  0.65760532  0.32010344     0.97600
O255        O  0.47211474  0.64604407  0.35361961    -0.83000
O256        O  0.39595092  0.62796501  0.35391823    -0.85600
C257        C  0.36276765  0.63587567  0.34166303     1.02100
O258        O  0.34794045  0.66817382  0.34658552    -0.78400
O259        O  0.37876566  0.72097689  0.29823614    -0.78500
C260        C  0.40137741  0.74518136  0.28438361     1.02000
Cr261      Cr  0.45582543  0.72959337  0.34491720     1.93700
Cr262      Cr  0.42805967  0.66044699  0.38861666     1.93200
Cr263      Cr  0.37057645  0.71879709  0.35452281     1.39100
O264        O  0.41754557  0.70241942  0.36285614    -1.23600
O265        O  0.54574224  0.65522564  0.90234793    -0.85900
O266        O  0.50984915  0.70342885  0.85449567    -0.82900
C267        C  0.48488164  0.71967225  0.83483539     0.97600
O268        O  0.45013357  0.70836435  0.83662545    -0.83000
O269        O  0.44623134  0.62842684  0.81756541    -0.85600
C270        C  0.45185525  0.59276707  0.82037495     1.02100
O271        O  0.45616005  0.57845958  0.85313725    -0.78400
O272        O  0.52763937  0.60405723  0.87110772    -0.78600
C273        C  0.55341650  0.62487135  0.88448002     1.02100
O274        O  0.49140190  0.67247303  0.95985172    -0.85900
O275        O  0.45600776  0.72486456  0.91353950    -0.82900
C276        C  0.42068200  0.71873201  0.91894894     0.97600
O277        O  0.40495331  0.69051570  0.90329018    -0.83000
O278        O  0.39572058  0.61525457  0.88385259    -0.85600
C279        C  0.40107269  0.59848831  0.91569979     1.02100
O280        O  0.43390722  0.59743458  0.92998562    -0.78400
O281        O  0.50721301  0.61303273  0.94935390    -0.78500
C282        C  0.50497121  0.64138366  0.97149174     1.02000
Cr283      Cr  0.49831669  0.68641937  0.90599057     1.93700
Cr284      Cr  0.42728444  0.65986132  0.86170622     1.93200
Cr285      Cr  0.48006025  0.60181255  0.89991974     1.39100
O286        O  0.46852155  0.64953445  0.88907394    -1.23600
O287        O  0.72613710  0.62400570  0.93679541    -0.85900
O288        O  0.78369940  0.62109205  0.99016590    -0.82900
C289        C  0.78753292  0.58581505  0.98608602     0.97600
O290        O  0.80478373  0.57335699  0.95691194    -0.83000
O291        O  0.83347386  0.57323471  0.88095029    -0.85600
C292        C  0.80737164  0.56703371  0.85652460     1.02100
O293        O  0.77950394  0.58977230  0.85428267    -0.78400
O294        O  0.72684066  0.64181184  0.87725260    -0.78600
C295        C  0.71018835  0.62591558  0.90477748     1.02100
O296        O  0.74572473  0.70074124  0.92086991    -0.85900
O297        O  0.81115588  0.69136234  0.96529959    -0.82900
C298        C  0.84106305  0.67686216  0.97948156     0.97600
O299        O  0.85067869  0.64271400  0.97139230    -0.83000
O300        O  0.87151757  0.64502102  0.89666542    -0.85600
C301        C  0.86576222  0.65522938  0.86274742     1.02100
O302        O  0.83468881  0.64831235  0.84601251    -0.78400
O303        O  0.78288328  0.70157567  0.87185431    -0.78500
C304        C  0.75890964  0.71834297  0.89273185     1.02000
Cr305      Cr  0.76877096  0.65780444  0.95031565     1.93700
Cr306      Cr  0.83713774  0.61005341  0.92567580     1.93200
Cr307      Cr  0.78222281  0.64487659  0.86612341     1.39100
O308        O  0.79641869  0.63757200  0.91365660    -1.23600
O309        O  0.34436406  0.40585698  0.95736757    -0.85900
O310        O  0.29724664  0.35293068  0.98823515    -0.82900
C311        C  0.27895286  0.33284457  0.01109720     0.97600
O312        O  0.28765836  0.33414768  0.04620847    -0.83000
O313        O  0.36881379  0.31748355  0.05121271    -0.85600
C314        C  0.40461862  0.32320480  0.04896837     1.02100
O315        O  0.41694273  0.35721773  0.04899176    -0.78400
O316        O  0.39674216  0.37884601  0.97934798    -0.78600
C317        C  0.37720061  0.39132499  0.95248471     1.02100
O318        O  0.31854904  0.46044145  0.01095569    -0.85900
O319        O  0.26907372  0.40878584  0.04270983    -0.82900
C320        C  0.27367478  0.41304310  0.07820258     0.97600
O321        O  0.30216374  0.39822062  0.09465550    -0.83000
O322        O  0.37827198  0.37874279  0.10605299    -0.85600
C323        C  0.39507467  0.41097016  0.10456427     1.02100
O324        O  0.39091462  0.43141420  0.07575818    -0.78400
O325        O  0.38015765  0.45533498  0.00202610    -0.78500
C326        C  0.34957687  0.47475860  0.00014280     1.02000
Cr327      Cr  0.30961155  0.40545184  0.00219823     1.93700
Cr328      Cr  0.33481730  0.35886885  0.07183668     1.93200
Cr329      Cr  0.39283484  0.40489744  0.02739672     1.39100
O330        O  0.34556367  0.38979082  0.03366998    -1.23600
O331        O  0.38583197  0.43755579  0.78414895    -0.85900
O332        O  0.38125679  0.47913302  0.71829446    -0.82900
C333        C  0.41666249  0.47522194  0.71453534     0.97600
O334        O  0.42918928  0.44429725  0.69975137    -0.83000
O335        O  0.43076047  0.36362802  0.68592569    -0.85600
C336        C  0.44216508  0.34659996  0.71588698     1.02100
O337        O  0.42362362  0.35072689  0.74627323    -0.78400
O338        O  0.36924372  0.37853147  0.79476115    -0.78600
C339        C  0.38775645  0.40786316  0.80407872     1.02100
O340        O  0.30827104  0.41291431  0.77214008    -0.85900
O341        O  0.31025684  0.44679029  0.70128591    -0.82900
C342        C  0.32202206  0.45632661  0.66883020     0.97600
O343        O  0.35572261  0.44752462  0.65838050    -0.83000
O344        O  0.35147435  0.36833357  0.65440014    -0.85600
C345        C  0.34629815  0.33565101  0.66926186     1.02100
O346        O  0.36678659  0.32712086  0.69689051    -0.78400
O347        O  0.31001899  0.35788262  0.74332518    -0.78500
C348        C  0.29177572  0.38259603  0.76214832     1.02000
Cr349      Cr  0.34784530  0.44123569  0.74277977     1.93700
Cr350      Cr  0.39098373  0.40561442  0.67687856     1.93200
Cr351      Cr  0.36714295  0.35655183  0.74394158     1.39100
O352        O  0.36894844  0.40110065  0.72117835    -1.23600
O353        O  0.08060683  0.19805756  0.84821708    -0.85900
O354        O  0.03489053  0.24197352  0.89065222    -0.82900
C355        C  0.02049774  0.26961439  0.90785367     0.97600
O356        O  0.03406612  0.30298820  0.90317751    -0.83000
O357        O  0.11538719  0.30304143  0.91984803    -0.85600
C358        C  0.15088996  0.29676235  0.91521560     1.02100
O359        O  0.16296216  0.28923032  0.88218111    -0.78400
O360        O  0.13464646  0.21855421  0.87320023    -0.78600
C361        C  0.11101580  0.19251169  0.86719448     1.02100
O362        O  0.06397022  0.24697609  0.78356772    -0.85900
O363        O  0.01571735  0.28934630  0.82618501    -0.82900
C364        C  0.02245175  0.32421945  0.81983690     0.97600
O365        O  0.05178021  0.34032108  0.83319554    -0.83000
O366        O  0.12924606  0.34581344  0.85037736    -0.85600
C367        C  0.14619818  0.33692585  0.81955822     1.02100
O368        O  0.14023301  0.30488541  0.80494067    -0.78400
O369        O  0.12265099  0.22920446  0.79416473    -0.78500
C370        C  0.09364314  0.23022754  0.77273752     1.02000
Cr371      Cr  0.05155083  0.24641128  0.83823765     1.93700
Cr372      Cr  0.08303693  0.31985121  0.87531370     1.93200
Cr373      Cr  0.13672479  0.26181809  0.83925875     1.39100
O374        O  0.09009184  0.27598404  0.85121745    -1.23600
O375        O  0.10174760  0.03215999  0.84650254    -0.85900
O376        O  0.15068086  0.99797642  0.79843826    -0.82900
C377        C  0.16970890  0.97364705  0.78063159     0.97600
O378        O  0.16690034  0.93854399  0.78973113    -0.83000
O379        O  0.18562162  0.93267529  0.86907740    -0.85600
C380        C  0.18186895  0.93590872  0.90469255     1.02100
O381        O  0.14857365  0.93910266  0.91883306    -0.78400
O382        O  0.12914205  0.01089008  0.89878812    -0.78600
C383        C  0.11966296  0.03766935  0.87725948     1.02100
O384        O  0.04328737  0.97925369  0.82495571    -0.85900
O385        O  0.09174317  0.94603876  0.77346247    -0.82900
C386        C  0.08636881  0.91058456  0.77746864     0.97600
O387        O  0.10030830  0.89318478  0.80562884    -0.83000
O388        O  0.12128594  0.88196944  0.88114041    -0.85600
C389        C  0.08931601  0.88564406  0.89817500     1.02100
O390        O  0.07125105  0.91632316  0.89564468    -0.78400
O391        O  0.05164951  0.99114734  0.88507686    -0.78500
C392        C  0.03077646  0.99203135  0.85574930     1.02000
Cr393      Cr  0.09811399  0.98643208  0.81328843     1.93700
Cr394      Cr  0.14190587  0.91441820  0.83713871     1.93200
Cr395      Cr  0.10094277  0.96322688  0.89623284     1.39100
O396        O  0.11396439  0.95496250  0.84876571    -1.23600
O397        O  0.90994236  0.70367283  0.67258394    -0.85900
O398        O  0.95782338  0.73381316  0.62070936    -0.82900
C399        C  0.97579894  0.75672285  0.60031577     0.97600
O400        O  0.96762457  0.79212412  0.60199501    -0.83000
O401        O  0.88568744  0.80070318  0.58950704    -0.85600
C402        C  0.85018057  0.79995275  0.59717997     1.02100
O403        O  0.83999123  0.80136900  0.63161221    -0.78400
O404        O  0.85685360  0.72920016  0.64985072    -0.78600
C405        C  0.87725838  0.70082231  0.65702019     1.02100
O406        O  0.93990597  0.75656374  0.72803152    -0.85900
O407        O  0.98944299  0.78601451  0.67648100    -0.82900
C408        C  0.98695705  0.82190751  0.68031560     0.97600
O409        O  0.95857258  0.83970826  0.66688910    -0.83000
O410        O  0.88238745  0.85531526  0.65238777    -0.85600
C411        C  0.86816099  0.85397609  0.68572932     1.02100
O412        O  0.87154596  0.82391545  0.70452874    -0.78400
O413        O  0.87820438  0.74865283  0.72510338    -0.78500
C414        C  0.90931826  0.74633135  0.74327602     1.02000
Cr415      Cr  0.94684736  0.74743524  0.67332308     1.93700
Cr416      Cr  0.92283596  0.81924179  0.62923349     1.93200
Cr417      Cr  0.86495729  0.77650200  0.67682334     1.39100
O418        O  0.91177239  0.78070979  0.65952411    -1.23600
O419        O  0.90185228  0.53995693  0.66718336    -0.85900
O420        O  0.85792851  0.50021862  0.71283937    -0.82900
C421        C  0.83888728  0.47427317  0.72768222     0.97600
O422        O  0.84035314  0.44055675  0.71400890    -0.83000
O423        O  0.81975145  0.44216523  0.63451114    -0.85600
C424        C  0.82262461  0.44847293  0.59921480     1.02100
O425        O  0.85534383  0.45468665  0.58524079    -0.78400
O426        O  0.86949610  0.52369895  0.61617684    -0.78600
C427        C  0.87808408  0.54763747  0.64109706     1.02100
O428        O  0.96298390  0.48495755  0.67815522    -0.85900
O429        O  0.91854940  0.44640543  0.72884395    -0.82900
C430        C  0.92312756  0.41149877  0.72086030     0.97600
O431        O  0.90729310  0.39754250  0.69193317    -0.83000
O432        O  0.88642267  0.39468796  0.61690801    -0.85600
C433        C  0.91763894  0.40151558  0.59936760     1.02100
O434        O  0.93303386  0.43380527  0.60150841    -0.78400
O435        O  0.94981335  0.50767452  0.62212771    -0.78500
C436        C  0.97324429  0.50279080  0.64914213     1.02000
Cr437      Cr  0.90919506  0.49070055  0.69410399     1.93700
Cr438      Cr  0.86479225  0.42173678  0.66382118     1.93200
Cr439      Cr  0.90141038  0.47872540  0.60952556     1.39100
O440        O  0.89170865  0.46350185  0.65603696    -1.23600
O441        O  0.95566895  0.33219431  0.39383352    -0.85900
O442        O  0.99553571  0.28242774  0.35185366    -0.82900
C443        C  0.02189823  0.26468047  0.33566591     0.97600
O444        O  0.05647157  0.27479863  0.34106014    -0.83000
O445        O  0.06267147  0.35440825  0.32108140    -0.85600
C446        C  0.05852847  0.39019569  0.32438393     1.02100
O447        O  0.05288971  0.40451343  0.35684973    -0.78400
O448        O  0.97975824  0.38352186  0.36707576    -0.78600
C449        C  0.95205949  0.36225770  0.37426575     1.02100
O450        O  0.00313145  0.31368248  0.45824796    -0.85900
O451        O  0.04136225  0.26090369  0.41715126    -0.82900
C452        C  0.07577909  0.26734357  0.42631717     0.97600
O453        O  0.09423886  0.29384843  0.41083005    -0.83000
O454        O  0.10741619  0.36792523  0.39004447    -0.85600
C455        C  0.10059622  0.38520143  0.42118356     1.02100
O456        O  0.06753792  0.38472294  0.43487610    -0.78400
O457        O  0.99110851  0.37358935  0.44654200    -0.78500
C458        C  0.99069401  0.34545478  0.46884618     1.02000
Cr459      Cr  0.00133701  0.29969574  0.40406683     1.93700
Cr460      Cr  0.07713726  0.32344630  0.36684312     1.93200
Cr461      Cr  0.02382114  0.38310381  0.40069005     1.39100
O462        O  0.03396289  0.33518514  0.39030890    -1.23600
O463        O  0.79395974  0.34824827  0.41416363    -0.85900
O464        O  0.75329884  0.39215958  0.46102710    -0.82900
C465        C  0.72663304  0.40968591  0.47684622     0.97600
O466        O  0.69221288  0.40370529  0.46633664    -0.83000
O467        O  0.68772941  0.42077154  0.38650803    -0.85600
C468        C  0.69312881  0.41666951  0.35114997     1.02100
O469        O  0.69842202  0.38346995  0.33789555    -0.78400
O470        O  0.77072189  0.37339679  0.36167056    -0.78600
C471        C  0.79793181  0.36747677  0.38397978     1.02100
O472        O  0.74586643  0.28394986  0.43337180    -0.85900
O473        O  0.70619600  0.32788077  0.48400194    -0.82900
C474        C  0.67153771  0.31918747  0.47779254     0.97600
O475        O  0.65403158  0.33260921  0.44942123    -0.83000
O476        O  0.64329531  0.35117158  0.37419882    -0.85600
C477        C  0.65043828  0.31928214  0.35820139     1.02100
O478        O  0.68340141  0.30526355  0.36002491    -0.78400
O479        O  0.75971398  0.29390957  0.37390439    -0.78500
C480        C  0.75955064  0.27233535  0.40258586     1.02000
Cr481      Cr  0.74739777  0.33903750  0.44562075     1.93700
Cr482      Cr  0.67228318  0.37586941  0.41854298     1.93200
Cr483      Cr  0.72694427  0.33970303  0.36182367     1.39100
O484        O  0.71563261  0.35170778  0.40889760    -1.23600
O485        O  0.85201657  0.07187859  0.21334865    -0.85900
O486        O  0.89287311  0.02333731  0.25426104    -0.82900
C487        C  0.91442511  0.01146378  0.27995010     0.97600
O488        O  0.91332620  0.02623079  0.31294719    -0.83000
O489        O  0.92965894  0.10613071  0.31174081    -0.85600
C490        C  0.92478173  0.14132242  0.30522575     1.02100
O491        O  0.89103803  0.15372508  0.30281625    -0.78400
O492        O  0.88114676  0.12422146  0.23229344    -0.78600
C493        C  0.87401505  0.09991875  0.20717453     1.02100
O494        O  0.78745134  0.06027993  0.26396331    -0.85900
O495        O  0.83048412  0.00902632  0.30490716    -0.82900
C496        C  0.82847040  0.01516455  0.34025218     0.97600
O497        O  0.84508865  0.04345867  0.35483616    -0.83000
O498        O  0.86071351  0.12008560  0.35898477    -0.85600
C499        C  0.82870479  0.13654342  0.35188161     1.02100
O500        O  0.81389021  0.13416277  0.31943004    -0.78400
O501        O  0.80148762  0.11691820  0.24364004    -0.78500
C502        C  0.77814701  0.08969301  0.24588542     1.02000
Cr503      Cr  0.84182915  0.04390474  0.26153332     1.93700
Cr504      Cr  0.88565590  0.07454882  0.33159057     1.93200
Cr505      Cr  0.84751408  0.12877460  0.27580961     1.39100
O506        O  0.85838632  0.08183387  0.28982471    -1.23600
O507        O  0.84401736  0.09121661  0.04580673    -0.85900
O508        O  0.79288533  0.13430759  0.00765571    -0.82900
C509        C  0.77583020  0.15206525  0.98189727     0.97600
O510        O  0.78818809  0.15018514  0.94784968    -0.83000
O511        O  0.86691967  0.17415874  0.94525891    -0.85600
C512        C  0.90269523  0.17256157  0.95104772     1.02100
O513        O  0.91850995  0.14046411  0.95585326    -0.78400
O514        O  0.89361410  0.12457679  0.02673311    -0.78600
C515        C  0.87283145  0.11194563  0.05262810     1.02100
O516        O  0.83147269  0.03052669  0.99281172    -0.85900
O517        O  0.77720550  0.07255481  0.95631626    -0.82900
C518        C  0.78453107  0.06661592  0.92175315     0.97600
O519        O  0.81207402  0.08330813  0.90599794    -0.83000
O520        O  0.88588910  0.10763331  0.89792126    -0.85600
C521        C  0.90436298  0.07672894  0.90411455     1.02100
O522        O  0.90432938  0.06201796  0.93645820    -0.78400
O523        O  0.88963926  0.04484022  0.01014515    -0.78500
C524        C  0.86278771  0.02093115  0.00736707     1.02000
Cr525      Cr  0.81387084  0.08366525  0.99842279     1.93700
Cr526      Cr  0.83893332  0.12756308  0.92725096     1.93200
Cr527      Cr  0.89810194  0.09364281  0.98117420     1.39100
O528        O  0.85004761  0.10194244  0.96903615    -1.23600
C529        C  0.87816956  0.14246739  0.15292816    -0.20800
C530        C  0.88686163  0.10684374  0.16891393    -0.07400
C531        C  0.90039827  0.07670572  0.14623126     0.13500
C532        C  0.90000516  0.08137703  0.10719800    -0.20900
C533        C  0.88554928  0.11486976  0.09121038    -0.07400
C534        C  0.87662824  0.14659970  0.11366186     0.13500
C535        C  0.86272930  0.18330821  0.09627963    -0.24200
H536        H  0.86844638  0.16561265  0.17088236     0.14700
H537        H  0.90752359  0.05756100  0.08903818     0.14800
C538        C  0.91354025  0.03923284  0.16277535    -0.24200
H539        H  0.85666266  0.20519827  0.11821480     0.05000
H540        H  0.83602775  0.17818463  0.07995369     0.08200
H541        H  0.88491814  0.19470074  0.07692690     0.08200
H542        H  0.88936247  0.02417965  0.17635681     0.08200
H543        H  0.93642491  0.04440330  0.18400928     0.08200
H544        H  0.92524489  0.01995273  0.14065111     0.05000
C545        C  0.83427892  0.19526435  0.38967345    -0.20800
C546        C  0.81132281  0.16470320  0.37791146    -0.07400
C547        C  0.77101451  0.16777519  0.38142713     0.13500
C548        C  0.75468269  0.20258276  0.39281724    -0.20900
C549        C  0.77764122  0.23439114  0.40000093    -0.07400
C550        C  0.81786580  0.23033675  0.40007926     0.13500
C551        C  0.84348038  0.26361043  0.40913739    -0.24200
H552        H  0.86507494  0.19309076  0.38682161     0.14700
H553        H  0.72384302  0.20572887  0.39357769     0.14800
C554        C  0.74502867  0.13485378  0.37191514    -0.24200
H555        H  0.83699275  0.27447185  0.43797913     0.05000
H556        H  0.87419733  0.25551879  0.40827447     0.08200
H557        H  0.83881223  0.28671170  0.38817053     0.08200
H558        H  0.75298442  0.10976920  0.38935193     0.08200
H559        H  0.74707267  0.12733500  0.34146973     0.08200
H560        H  0.71461353  0.14178985  0.37784147     0.05000
C561        C  0.97912070  0.23414704  0.28946279    -0.20800
C562        C  0.01002171  0.22989737  0.31445158    -0.07400
C563        C  0.01799875  0.19298066  0.32870435     0.13500
C564        C  0.99123264  0.16323499  0.32321522    -0.20900
C565        C  0.95711226  0.16937427  0.30284054    -0.07400
C566        C  0.95297343  0.20447696  0.28296953     0.13500
C567        C  0.92078519  0.21164462  0.25524848    -0.24200
H568        H  0.97335442  0.26212050  0.27767174     0.14700
H569        H  0.99586367  0.13598404  0.33692141     0.14800
C570        C  0.05368676  0.18546548  0.35131434    -0.24200
H571        H  0.92456475  0.23901101  0.23991637     0.05000
H572        H  0.89293644  0.21347208  0.27005768     0.08200
H573        H  0.92016840  0.18863295  0.23369073     0.08200
H574        H  0.05398552  0.20353146  0.37686157     0.08200
H575        H  0.07914971  0.19213760  0.33383212     0.08200
H576        H  0.05570215  0.15524584  0.36045266     0.05000
C577        C  0.89788871  0.40029487  0.39176894    -0.20800
C578        C  0.91411527  0.37523689  0.36553122    -0.07400
C579        C  0.89141725  0.35574128  0.33904227     0.13500
C580        C  0.85183936  0.35849030  0.34226999    -0.20900
C581        C  0.83575627  0.37868362  0.37255564    -0.07400
C582        C  0.85847780  0.40176519  0.39607403     0.13500
C583        C  0.84213075  0.42604588  0.42725114    -0.24200
H584        H  0.91599068  0.41535494  0.41180289     0.14700
H585        H  0.83373049  0.34119644  0.32416174     0.14800
C586        C  0.90891745  0.32998513  0.30960535    -0.24200
H587        H  0.85173030  0.45593913  0.42351003     0.05000
H588        H  0.85224151  0.41545377  0.45520463     0.08200
H589        H  0.81046720  0.42609813  0.42699054     0.08200
H590        H  0.92492509  0.30651380  0.32356695     0.08200
H591        H  0.92880589  0.34661722  0.29159952     0.08200
H592        H  0.88680434  0.31706349  0.29098181     0.05000
C593        C  0.78988432  0.46852028  0.53912200    -0.20800
C594        C  0.78900412  0.44652903  0.57259081    -0.07400
C595        C  0.75881848  0.42004769  0.57689104     0.13500
C596        C  0.73357350  0.41324598  0.54627414    -0.20900
C597        C  0.73757496  0.43181812  0.51126362    -0.07400
C598        C  0.76442194  0.46172452  0.50878893     0.13500
C599        C  0.76738989  0.48617980  0.47389966    -0.24200
H600        H  0.81182538  0.49002095  0.53577720     0.14700
H601        H  0.71335558  0.39037091  0.54827026     0.14800
C602        C  0.75484896  0.39646436  0.61229018    -0.24200
H603        H  0.76176080  0.51633490  0.48165667     0.05000
H604        H  0.74639537  0.47788265  0.45174560     0.08200
H605        H  0.79658968  0.48417443  0.46194651     0.08200
H606        H  0.75012461  0.41543202  0.63703340     0.08200
H607        H  0.78110502  0.37918205  0.61681415     0.08200
H608        H  0.73021118  0.37663418  0.61049180     0.05000
C609        C  0.97544612  0.37404402  0.57060428    -0.20800
C610        C  0.93522224  0.37451940  0.57232488    -0.07400
C611        C  0.91395604  0.35856351  0.54210289     0.13500
C612        C  0.93333600  0.34613285  0.50946591    -0.20900
C613        C  0.97315663  0.34975341  0.50641391    -0.07400
C614        C  0.99463325  0.36228100  0.53777434     0.13500
C615        C  0.03751737  0.36547206  0.53568678    -0.24200
H616        H  0.99177988  0.38619436  0.59380611     0.14700
H617        H  0.91714694  0.33612301  0.48517713     0.14800
C618        C  0.87088259  0.35763505  0.54265302    -0.24200
H619        H  0.04998094  0.37610235  0.56267259     0.05000
H620        H  0.04550100  0.38560369  0.51281128     0.08200
H621        H  0.05007275  0.33705037  0.52962725     0.08200
H622        H  0.85931206  0.38704252  0.54446227     0.08200
H623        H  0.86097587  0.34085665  0.56739886     0.08200
H624        H  0.85901414  0.34426696  0.51662161     0.05000
C625        C  0.87010823  0.64847719  0.61288532    -0.20800
C626        C  0.86245746  0.66359578  0.64870200    -0.07400
C627        C  0.84833565  0.64053128  0.67804681     0.13500
C628        C  0.84910047  0.60133404  0.67304888    -0.20900
C629        C  0.86283745  0.58579808  0.63920671    -0.07400
C630        C  0.87005398  0.60914738  0.60757879     0.13500
C631        C  0.88117738  0.59283692  0.56965334    -0.24200
H632        H  0.87972527  0.66708183  0.59030980     0.14700
H633        H  0.84212673  0.58284919  0.69668441     0.14800
C634        C  0.83467642  0.65624870  0.71540457    -0.24200
H635        H  0.88623019  0.61558608  0.54838025     0.05000
H636        H  0.85781086  0.57435586  0.55888690     0.08200
H637        H  0.90782997  0.57580827  0.57237721     0.08200
H638        H  0.83439598  0.68780738  0.71595209     0.08200
H639        H  0.85334871  0.64577305  0.73867167     0.08200
H640        H  0.80497740  0.64646072  0.72065010     0.05000
C641        C  0.07158983  0.85023845  0.74343989    -0.20800
C642        C  0.06381792  0.88918477  0.74887205    -0.07400
C643        C  0.03336343  0.90620212  0.72845948     0.13500
C644        C  0.01051728  0.88352344  0.70505137    -0.20900
C645        C  0.01655651  0.84405013  0.70133737    -0.07400
C646        C  0.04863485  0.82743536  0.71979097     0.13500
C647        C  0.05896687  0.78593129  0.71534403    -0.24200
H648        H  0.09548498  0.83737223  0.75835432     0.14700
H649        H  0.98668178  0.89689161  0.69052739     0.14800
C650        C  0.02302306  0.94778738  0.73241419    -0.24200
H651        H  0.08576407  0.77862340  0.73070932     0.05000
H652        H  0.06349830  0.77921974  0.68491993     0.08200
H653        H  0.03593277  0.76774464  0.72706073     0.08200
H654        H  0.04697378  0.96589672  0.72253517     0.08200
H655        H  0.01615096  0.95425049  0.76237197     0.08200
H656        H  0.99752348  0.95554456  0.71520795     0.05000
C657        C  0.92707462  0.01859584  0.87232536    -0.20800
C658        C  0.93026764  0.05842355  0.87646568    -0.07400
C659        C  0.96496771  0.07623371  0.86639411     0.13500
C660        C  0.99657709  0.05355592  0.85639493    -0.20900
C661        C  0.99444911  0.01359727  0.85680220    -0.07400
C662        C  0.95890486  0.99593354  0.86286188     0.13500
C663        C  0.95522925  0.95323020  0.86182251    -0.24200
H664        H  0.90057864  0.00483870  0.88038831     0.14700
H665        H  0.02392742  0.06698925  0.85101534     0.14800
C666        C  0.96989641  0.11874831  0.86967166    -0.24200
H667        H  0.92542038  0.94396114  0.86742262     0.05000
H668        H  0.97409660  0.94032029  0.88369341     0.08200
H669        H  0.96370129  0.94249597  0.83344051     0.08200
H670        H  0.96616654  0.12782771  0.89953493     0.08200
H671        H  0.94841489  0.13341258  0.85158576     0.08200
H672        H  0.99880718  0.12791799  0.86045898     0.05000
C673        C  0.92114223  0.23420167  0.92038906    -0.20800
C674        C  0.92766635  0.20707960  0.94889361    -0.07400
C675        C  0.96115861  0.21070874  0.97150733     0.13500
C676        C  0.98945935  0.23736998  0.96144278    -0.20900
C677        C  0.98521765  0.26095899  0.92964800    -0.07400
C678        C  0.94930237  0.26119882  0.91076073     0.13500
C679        C  0.94099207  0.28763008  0.87824362    -0.24200
H680        H  0.89520049  0.23259259  0.90356489     0.14700
H681        H  0.01672295  0.23701869  0.97615359     0.14800
C682        C  0.96789641  0.18591207  0.00578431    -0.24200
H683        H  0.91410704  0.30352956  0.88385183     0.05000
H684        H  0.93765927  0.27101105  0.85165238     0.08200
H685        H  0.96390500  0.30890048  0.87451843     0.08200
H686        H  0.97220232  0.15579953  0.99731397     0.08200
H687        H  0.94310926  0.18816034  0.02525873     0.08200
H688        H  0.99381726  0.19482765  0.02171702     0.05000
C689        C  0.98786944  0.33228925  0.75931103    -0.20800
C690        C  0.99569486  0.34603486  0.79579092    -0.07400
C691        C  0.97858635  0.38030290  0.80805934     0.13500
C692        C  0.95423601  0.40019813  0.78331126    -0.20900
C693        C  0.94703063  0.38719920  0.74621861    -0.07400
C694        C  0.96431456  0.35259822  0.73406882     0.13500
C695        C  0.95963649  0.33739488  0.69430659    -0.24200
H696        H  0.00134460  0.30601099  0.75011483     0.14700
H697        H  0.94102540  0.42640067  0.79300966     0.14800
C698        C  0.98548050  0.39579082  0.84734014    -0.24200
H699        H  0.97688634  0.31120073  0.68960561     0.05000
H700        H  0.96927513  0.35903486  0.67347315     0.08200
H701        H  0.92927782  0.32993780  0.68895097     0.08200
H702        H  0.01621975  0.40256704  0.85116424     0.08200
H703        H  0.97674454  0.37453659  0.86885439     0.08200
H704        H  0.96890219  0.42231405  0.85252547     0.05000
C705        C  0.15415932  0.09565113  0.86634495    -0.20800
C706        C  0.12707552  0.07645989  0.88801370    -0.07400
C707        C  0.09966553  0.09657053  0.90936235     0.13500
C708        C  0.09667316  0.13582717  0.90435933    -0.20900
C709        C  0.12081730  0.15436225  0.87891620    -0.07400
C710        C  0.15122258  0.13480827  0.86124507     0.13500
C711        C  0.17811895  0.15427976  0.83414979    -0.24200
H712        H  0.17486013  0.07945735  0.85005524     0.14700
H713        H  0.07398127  0.15163023  0.91823512     0.14800
C714        C  0.07188585  0.07638896  0.93496543    -0.24200
H715        H  0.19964549  0.13416480  0.82244534     0.05000
H716        H  0.19372444  0.17739625  0.84902417     0.08200
H717        H  0.16175484  0.16636363  0.80999299     0.08200
H718        H  0.08789401  0.05995262  0.95673019     0.08200
H719        H  0.05374985  0.05670849  0.91828485     0.08200
H720        H  0.05268714  0.09678068  0.94975244     0.05000
C721        C  0.18787004  0.35094716  0.76515314    -0.20800
C722        C  0.17805730  0.35935197  0.80296293    -0.07400
C723        C  0.20425044  0.38026878  0.82542608     0.13500
C724        C  0.24053306  0.38890025  0.81055457    -0.20900
C725        C  0.25180109  0.37601538  0.77445954    -0.07400
C726        C  0.22457076  0.35797103  0.75100708     0.13500
C727        C  0.23410837  0.34511614  0.71140698    -0.24200
H728        H  0.16765846  0.33567533  0.74744355     0.14700
H729        H  0.26108108  0.40381216  0.82816714     0.14800
C730        C  0.19533902  0.39164822  0.86564449    -0.24200
H731        H  0.20866159  0.33387924  0.69619984     0.05000
H732        H  0.25562079  0.32193683  0.71265120     0.08200
H733        H  0.24560677  0.36929583  0.69483704     0.08200
H734        H  0.19134149  0.36592299  0.88343767     0.08200
H735        H  0.16900628  0.40936929  0.86619778     0.08200
H736        H  0.21884332  0.40857447  0.87849678     0.05000
C737        C  0.20810141  0.32942146  0.00337919    -0.20800
C738        C  0.24423164  0.31333249  0.99575526    -0.07400
C739        C  0.24735033  0.28764819  0.96509239     0.13500
C740        C  0.21546551  0.28069091  0.94156769    -0.20900
C741        C  0.18014631  0.29953875  0.94676209    -0.07400
C742        C  0.17616915  0.32311045  0.97926118     0.13500
C743        C  0.13935205  0.34382394  0.98735374    -0.24200
H744        H  0.20569728  0.34979865  0.02635855     0.14700
H745        H  0.21890374  0.26174897  0.91754418     0.14800
C746        C  0.28496163  0.26859838  0.95622363    -0.24200
H747        H  0.14148018  0.36157343  0.01334777     0.05000
H748        H  0.11597919  0.32293265  0.99165382     0.08200
H749        H  0.13208104  0.36293673  0.96331058     0.08200
H750        H  0.29489602  0.25217972  0.98128734     0.08200
H751        H  0.30679497  0.29022510  0.94882922     0.08200
H752        H  0.28242419  0.24860776  0.93193589     0.05000
C753        C  0.40009544  0.43248985  0.90301096    -0.20800
C754        C  0.39523897  0.39535252  0.91634017    -0.07400
C755        C  0.40517505  0.36387768  0.89401121     0.13500
C756        C  0.41315115  0.37040916  0.85599525    -0.20900
C757        C  0.40719686  0.40695858  0.84059244    -0.07400
C758        C  0.40626307  0.43881663  0.86472312     0.13500
C759        C  0.40910215  0.47894843  0.85044688    -0.24200
H760        H  0.39575037  0.45645160  0.92190915     0.14700
H761        H  0.41702324  0.34617625  0.83728056     0.14800
C762        C  0.40324890  0.32372966  0.90895489    -0.24200
H763        H  0.41138426  0.49958600  0.87419292     0.05000
H764        H  0.38374909  0.48660894  0.83312115     0.08200
H765        H  0.43538476  0.48148114  0.83343118     0.08200
H766        H  0.37387252  0.31752576  0.91906616     0.08200
H767        H  0.42365322  0.32024132  0.93276670     0.08200
H768        H  0.41069710  0.30249024  0.88680645     0.05000
C769        C  0.78543321  0.53625486  0.79589378    -0.20800
C770        C  0.81019463  0.53510670  0.82763434    -0.07400
C771        C  0.83847990  0.50589041  0.82840399     0.13500
C772        C  0.84244826  0.48093047  0.79705657    -0.20900
C773        C  0.82014093  0.48491756  0.76401507    -0.07400
C774        C  0.79049811  0.51231479  0.76419515     0.13500
C775        C  0.76531771  0.51869244  0.73005441    -0.24200
H776        H  0.76327512  0.55784495  0.79438007     0.14700
H777        H  0.86606617  0.46084865  0.79667371     0.14800
C778        C  0.86600395  0.50170650  0.86105774    -0.24200
H779        H  0.73487932  0.51547435  0.73830964     0.05000
H780        H  0.77120872  0.49803338  0.70696436     0.08200
H781        H  0.76981373  0.54794348  0.71894769     0.08200
H782        H  0.84991479  0.49804740  0.88788476     0.08200
H783        H  0.88464782  0.52718853  0.86294368     0.08200
H784        H  0.88496237  0.47650974  0.85754288     0.05000
C785        C  0.89085843  0.71743226  0.84482465    -0.20800
C786        C  0.89353187  0.67765808  0.84113984    -0.07400
C787        C  0.90946401  0.66197433  0.80791900     0.13500
C788        C  0.91832426  0.68609032  0.77751753    -0.20900
C789        C  0.91039663  0.72524096  0.77934273    -0.07400
C790        C  0.89843114  0.74143344  0.81385820     0.13500
C791        C  0.89115119  0.78350344  0.81706344    -0.24200
H792        H  0.87816054  0.72936006  0.87021755     0.14700
H793        H  0.92810612  0.67386983  0.75101358     0.14800
C794        C  0.91410318  0.61948287  0.80353016    -0.24200
H795        H  0.88253854  0.79177408  0.84620972     0.05000
H796        H  0.86776466  0.79153801  0.79735387     0.08200
H797        H  0.91748027  0.79944504  0.80965835     0.08200
H798        H  0.88588293  0.60516898  0.80530891     0.08200
H799        H  0.93298560  0.60843073  0.82637928     0.08200
H800        H  0.92706896  0.61192615  0.77581219     0.05000
C801        C  0.42558503  0.54446782  0.72553113    -0.20800
C802        C  0.44003892  0.50723456  0.73090901    -0.07400
C803        C  0.46517597  0.50132761  0.76179109     0.13500
C804        C  0.47097666  0.53086705  0.78872920    -0.20900
C805        C  0.45187097  0.56637683  0.78621634    -0.07400
C806        C  0.43089518  0.57383030  0.75255212     0.13500
C807        C  0.41167369  0.61168914  0.74585828    -0.24200
H808        H  0.40652619  0.54952712  0.70175577     0.14700
H809        H  0.48873224  0.52519924  0.81331566     0.14800
C810        C  0.48372455  0.46305714  0.76793917    -0.24200
H811        H  0.39607375  0.61234985  0.71839740     0.05000
H812        H  0.43346937  0.63462924  0.74520559     0.08200
H813        H  0.39066697  0.61746271  0.76869747     0.08200
H814        H  0.50153216  0.45569076  0.74297884     0.08200
H815        H  0.46165394  0.44077359  0.77182918     0.08200
H816        H  0.50241134  0.46302235  0.79344403     0.05000
C817        C  0.37443461  0.57690191  0.97666767    -0.20800
C818        C  0.37157941  0.57632257  0.93675785    -0.07400
C819        C  0.35125533  0.54615329  0.91963224     0.13500
C820        C  0.34107474  0.51418362  0.94180372    -0.20900
C821        C  0.35010973  0.51235363  0.98074657    -0.07400
C822        C  0.36445173  0.54509460  0.99874387     0.13500
C823        C  0.37083251  0.54569915  0.04094941    -0.24200
H824        H  0.38837397  0.60085059  0.99023326     0.14700
H825        H  0.32840332  0.48953769  0.92819934     0.14800
C826        C  0.34177002  0.54702917  0.87801181    -0.24200
H827        H  0.38132410  0.57385574  0.05076416     0.05000
H828        H  0.39221180  0.52370032  0.04904391     0.08200
H829        H  0.34345387  0.53976210  0.05566099     0.08200
H830        H  0.32298843  0.57186273  0.87203011     0.08200
H831        H  0.36811541  0.54978591  0.86085549     0.08200
H832        H  0.32654119  0.52080458  0.86895413     0.05000
C833        C  0.65607930  0.61234107  0.86189496    -0.20800
C834        C  0.67061572  0.61298756  0.89929619    -0.07400
C835        C  0.64558773  0.60646226  0.93008462     0.13500
C836        C  0.60654416  0.60499047  0.92288959    -0.20900
C837        C  0.59226714  0.61113643  0.88642031    -0.07400
C838        C  0.61671937  0.61212811  0.85515041     0.13500
C839        C  0.60130634  0.61567786  0.81540109    -0.24200
H840        H  0.67525992  0.61528591  0.83800251     0.14700
H841        H  0.58675179  0.60303906  0.94643035     0.14800
C842        C  0.65861065  0.60413619  0.97078471    -0.24200
H843        H  0.62465647  0.61643822  0.79414104     0.05000
H844        H  0.58428791  0.64229027  0.81260902     0.08200
H845        H  0.58271619  0.59088528  0.80894090     0.08200
H846        H  0.67099943  0.63174066  0.97994108     0.08200
H847        H  0.67991382  0.58104996  0.97403361     0.08200
H848        H  0.63458149  0.59745944  0.99014473     0.05000
C849        C  0.37154681  0.84311118  0.39022952    -0.20800
C850        C  0.40832543  0.82669833  0.39345774    -0.07400
C851        C  0.43995625  0.85020068  0.40235123     0.13500
C852        C  0.43494386  0.88952881  0.40108120    -0.20900
C853        C  0.39965079  0.90515545  0.39084745    -0.07400
C854        C  0.36704483  0.88243858  0.38774978     0.13500
C855        C  0.32845817  0.89948442  0.37885048    -0.24200
H856        H  0.34671069  0.82525417  0.38565461     0.14700
H857        H  0.45941164  0.90814455  0.40472741     0.14800
C858        C  0.47923279  0.83488616  0.41121864    -0.24200
H859        H  0.30590966  0.87732481  0.37693774     0.05000
H860        H  0.32952132  0.91474746  0.35130352     0.08200
H861        H  0.32034882  0.91990996  0.40150306     0.08200
H862        H  0.49142049  0.81995940  0.38633650     0.08200
H863        H  0.47732795  0.81524041  0.43558065     0.08200
H864        H  0.49945679  0.85792729  0.41917699     0.05000
C865        C  0.93142660  0.91295568  0.24487564    -0.20800
C866        C  0.95556904  0.92106054  0.21410419    -0.07400
C867        C  0.97521987  0.95658144  0.21424550     0.13500
C868        C  0.96631209  0.98430774  0.24180237    -0.20900
C869        C  0.93822713  0.97801661  0.26934290    -0.07400
C870        C  0.92257902  0.94091696  0.27234236     0.13500
C871        C  0.89397877  0.93099014  0.30255645    -0.24200
H872        H  0.91714059  0.88561342  0.24611886     0.14700
H873        H  0.97838285  0.01262463  0.23929609     0.14800
C874        C  0.00502831  0.96628447  0.18500119    -0.24200
H875        H  0.90437216  0.90590195  0.31877671     0.05000
H876        H  0.86611166  0.92388144  0.28920332     0.08200
H877        H  0.88956960  0.95459098  0.32299212     0.08200
H878        H  0.99178184  0.96928098  0.15657626     0.08200
H879        H  0.02740267  0.94382251  0.18452750     0.08200
H880        H  0.01936579  0.99375123  0.19147013     0.05000
C881        C  0.90397779  0.69462290  0.00741655    -0.20800
C882        C  0.86408050  0.69909659  0.00711709    -0.07400
C883        C  0.84696161  0.72389955  0.03382928     0.13500
C884        C  0.87027727  0.74499835  0.05846356    -0.20900
C885        C  0.91042265  0.74198707  0.05777324    -0.07400
C886        C  0.92741221  0.71561636  0.03229130     0.13500
C887        C  0.97007440  0.70976870  0.03026086    -0.24200
H888        H  0.91699947  0.67505493  0.98744828     0.14700
H889        H  0.85680247  0.76426300  0.07841323     0.14800
C890        C  0.80410637  0.72750400  0.03759744    -0.24200
H891        H  0.97803847  0.68853061  0.00829008     0.05000
H892        H  0.98093591  0.69902004  0.05786490     0.08200
H893        H  0.98434570  0.73700516  0.02295962     0.08200
H894        H  0.79134597  0.69895382  0.04234514     0.08200
H895        H  0.79171226  0.74052751  0.01168031     0.08200
H896        H  0.79593383  0.74592078  0.06188898     0.05000
C897        C  0.89380708  0.91927395  0.02383789    -0.20800
C898        C  0.88910415  0.91615043  0.06342990    -0.07400
C899        C  0.86935594  0.94540594  0.08290214     0.13500
C900        C  0.85842077  0.97845211  0.06299590    -0.20900
C901        C  0.86727306  0.98298432  0.02447400    -0.07400
C902        C  0.88386101  0.95266333  0.00431193     0.13500
C903        C  0.89309870  0.95645666  0.96277541    -0.24200
H904        H  0.90875129  0.89685350  0.00871159     0.14700
H905        H  0.84524501  0.00195289  0.07811455     0.14800
C906        C  0.86242505  0.94341193  0.12496583    -0.24200
H907        H  0.90631012  0.93008039  0.95126515     0.05000
H908        H  0.91348867  0.98026530  0.95845659     0.08200
H909        H  0.86650087  0.96233872  0.94652050     0.08200
H910        H  0.89007699  0.94226680  0.14043176     0.08200
H911        H  0.84535261  0.91766059  0.13165350     0.08200
H912        H  0.84642314  0.96870798  0.13536054     0.05000
C913        C  0.02134138  0.84196657  0.96694663    -0.20800
C914        C  0.04348313  0.84512657  0.00000206    -0.07400
C915        C  0.08342699  0.85115271  0.99659455     0.13500
C916        C  0.09930722  0.85782647  0.96073567    -0.20900
C917        C  0.07629848  0.85958731  0.92825532    -0.07400
C918        C  0.03721241  0.84955689  0.93110818     0.13500
C919        C  0.01197756  0.84835744  0.89643357    -0.24200
H920        H  0.99104167  0.83598590  0.96937486     0.14700
H921        H  0.12924253  0.86566806  0.95878231     0.14800
C922        C  0.11023241  0.85187773  0.03000020    -0.24200
H923        H  0.98242441  0.83930379  0.90349953     0.05000
H924        H  0.02390290  0.82772474  0.87571231     0.08200
H925        H  0.01023203  0.87687235  0.88302046     0.08200
H926        H  0.13328291  0.83047072  0.02586770     0.08200
H927        H  0.09592075  0.84511453  0.05690978     0.08200
H928        H  0.12331094  0.88054434  0.03237863     0.05000
C929        C  0.27200819  0.90210852  0.95741783    -0.20800
C930        C  0.27095398  0.92492030  0.99025112    -0.07400
C931        C  0.24424309  0.95519394  0.99142081     0.13500
C932        C  0.21701777  0.95949847  0.96206182    -0.20900
C933        C  0.21576774  0.93440456  0.93093034    -0.07400
C934        C  0.24465858  0.90616660  0.92803717     0.13500
C935        C  0.24462607  0.87787157  0.89592158    -0.24200
H936        H  0.29156501  0.87809705  0.95673317     0.14700
H937        H  0.19550631  0.98167384  0.96425040     0.14800
C938        C  0.24356895  0.98199427  0.02473591    -0.24200
H939        H  0.26802074  0.85661062  0.89889455     0.05000
H940        H  0.24868066  0.89293838  0.86859140     0.08200
H941        H  0.21704845  0.86223389  0.89535931     0.08200
H942        H  0.27150193  0.99682054  0.02687853     0.08200
H943        H  0.23857066  0.96603813  0.05133852     0.08200
H944        H  0.22073314  0.00385445  0.02181818     0.05000
C945        C  0.33691148  0.97829559  0.17865659    -0.20800
C946        C  0.31619631  0.94432626  0.18388018    -0.07400
C947        C  0.29719913  0.93940480  0.21934979     0.13500
C948        C  0.30326094  0.96547655  0.24912312    -0.20900
C949        C  0.32742510  0.99696866  0.24534066    -0.07400
C950        C  0.34251626  0.00467726  0.20871874     0.13500
C951        C  0.36628286  0.03944013  0.20076528    -0.24200
H952        H  0.35061226  0.98341049  0.15162428     0.14700
H953        H  0.29151458  0.95939652  0.27688537     0.14800
C954        C  0.27075384  0.90637721  0.22706841    -0.24200
H955        H  0.35357861  0.05535639  0.17661024     0.05000
H956        H  0.39584073  0.03076605  0.19320827     0.08200
H957        H  0.36744886  0.05925249  0.22512179     0.08200
H958        H  0.28680040  0.87911100  0.22773268     0.08200
H959        H  0.24791481  0.90551828  0.20527027     0.08200
H960        H  0.25642887  0.90912123  0.25500237     0.05000
C961        C  0.34315449  0.76025012  0.98429517    -0.20800
C962        C  0.36002188  0.79461701  0.99573708    -0.07400
C963        C  0.39586738  0.80482310  0.98038671     0.13500
C964        C  0.41422165  0.78004605  0.95476423    -0.20900
C965        C  0.39800384  0.74491372  0.94402628    -0.07400
C966        C  0.36160807  0.73509327  0.95914735     0.13500
C967        C  0.34214301  0.69779159  0.95022977    -0.24200
H968        H  0.31565224  0.75248096  0.99608805     0.14700
H969        H  0.44172480  0.78818784  0.94327983     0.14800
C970        C  0.41446735  0.84227577  0.99009388    -0.24200
H971        H  0.31463110  0.69473899  0.96558507     0.05000
H972        H  0.36075835  0.67360722  0.95886570     0.08200
H973        H  0.33564226  0.69605526  0.91947174     0.08200
H974        H  0.42171877  0.84317363  0.02070565     0.08200
H975        H  0.39469981  0.86608813  0.98311777     0.08200
H976        H  0.44135228  0.84662427  0.97398473     0.05000
C977        C  0.37794947  0.75748422  0.17943053    -0.20800
C978        C  0.38299746  0.79707081  0.17487575    -0.07400
C979        C  0.39938610  0.81802313  0.20499699     0.13500
C980        C  0.40632500  0.79971344  0.23980415    -0.20900
C981        C  0.39658434  0.76122134  0.24566630    -0.07400
C982        C  0.38382478  0.73947065  0.21450436     0.13500
C983        C  0.37579178  0.69752602  0.21801029    -0.24200
H984        H  0.36582247  0.74116262  0.15623299     0.14700
H985        H  0.41739553  0.81626820  0.26333144     0.14800
C986        C  0.40735286  0.86005358  0.20168264    -0.24200
H987        H  0.36805324  0.68474683  0.19023596     0.05000
H988        H  0.35146220  0.69295062  0.23758254     0.08200
H989        H  0.40157388  0.68250335  0.22885275     0.08200
H990        H  0.38034850  0.87601690  0.19739410     0.08200
H991        H  0.42685726  0.86526240  0.17747687     0.08200
H992        H  0.42117207  0.87150624  0.22767227     0.05000
C993        C  0.16179694  0.85573950  0.16252250    -0.20800
C994        C  0.17673981  0.87782489  0.13314169    -0.07400
C995        C  0.15342038  0.90248548  0.11199621     0.13500
C996        C  0.11413443  0.90057858  0.11735494    -0.20900
C997        C  0.09896361  0.87276143  0.14136210    -0.07400
C998        C  0.12247935  0.85162038  0.16582204     0.13500
C999        C  0.10626717  0.82299670  0.19309729    -0.24200
H1000       H  0.18064855  0.83771291  0.17920494     0.14700
H1001       H  0.09525753  0.91710293  0.09922595     0.14800
C1002       C  0.16977303  0.92883312  0.08259964    -0.24200
H1003       H  0.12904499  0.80892247  0.21009602     0.05000
H1004       H  0.09059266  0.80050722  0.17736072     0.08200
H1005       H  0.08648047  0.83768112  0.21286007     0.08200
H1006       H  0.18455334  0.91218947  0.06024930     0.08200
H1007       H  0.19041928  0.94842512  0.09639516     0.08200
H1008       H  0.14717403  0.94627616  0.06874963     0.05000
C1009       C  0.54792984  0.78525606  0.77696901    -0.20800
C1010       C  0.54720306  0.81867964  0.79932946    -0.07400
C1011       C  0.51854047  0.82112275  0.82786338     0.13500
C1012       C  0.49415414  0.78968280  0.83484255    -0.20900
C1013       C  0.49759758  0.75514223  0.81487291    -0.07400
C1014       C  0.52411458  0.75364351  0.78467001     0.13500
C1015       C  0.52904037  0.71825847  0.76101946    -0.24200
H1016       H  0.56896548  0.78260014  0.75461682     0.14700
H1017       H  0.47452899  0.79089130  0.85855902     0.14800
C1018       C  0.51395744  0.85614186  0.85218521    -0.24200
H1019       H  0.52417216  0.72531635  0.73070821     0.05000
H1020       H  0.50858443  0.69548748  0.76888457     0.08200
H1021       H  0.55856145  0.70705190  0.76450569     0.08200
H1022       H  0.51007928  0.88163182  0.83393515     0.08200
H1023       H  0.53936636  0.85982049  0.87071131     0.08200
H1024       H  0.48862598  0.85404566  0.87099509     0.05000
C1025       C  0.71818865  0.98635286  0.89110283    -0.20800
C1026       C  0.71751186  0.99186011  0.85181092    -0.07400
C1027       C  0.73858530  0.02212763  0.83567380     0.13500
C1028       C  0.75966354  0.04608911  0.85947317    -0.20900
C1029       C  0.76037612  0.04074862  0.89891567    -0.07400
C1030       C  0.73955137  0.01013109  0.91494019     0.13500
C1031       C  0.74035823  0.00129905  0.95675432    -0.24200
H1032       H  0.70203532  0.96301572  0.90320268     0.14700
H1033       H  0.77551072  0.06946558  0.84708120     0.14800
C1034       C  0.73803111  0.03041998  0.79368867    -0.24200
H1035       H  0.72370090  0.97528975  0.96357543     0.05000
H1036       H  0.72759401  0.02516546  0.97305036     0.08200
H1037       H  0.77024795  0.99623018  0.96608720     0.08200
H1038       H  0.70812244  0.03477838  0.78391212     0.08200
H1039       H  0.75127229  0.00647537  0.77786313     0.08200
H1040       H  0.75441305  0.05654905  0.78666344     0.05000
C1041       C  0.73529788  0.81190221  0.84177336    -0.20800
C1042       C  0.70248467  0.82377165  0.86148487    -0.07400
C1043       C  0.69216631  0.80455344  0.89483761     0.13500
C1044       C  0.71280057  0.77171576  0.90566065    -0.20900
C1045       C  0.74328647  0.75716995  0.88351167    -0.07400
C1046       C  0.75567266  0.77893234  0.85201988     0.13500
C1047       C  0.78929616  0.76731726  0.82798895    -0.24200
H1048       H  0.74333841  0.82707438  0.81624145     0.14700
H1049       H  0.70351331  0.75621329  0.93051387     0.14800
C1050       C  0.65816709  0.81735794  0.91764198    -0.24200
H1051       H  0.79579937  0.78889753  0.80591646     0.05000
H1052       H  0.78317021  0.74010988  0.81316047     0.08200
H1053       H  0.81501469  0.76416110  0.84618281     0.08200
H1054       H  0.63189168  0.81622474  0.89993283     0.08200
H1055       H  0.66269463  0.84705677  0.92752095     0.08200
H1056       H  0.65372508  0.79905021  0.94290690     0.05000
C1057       C  0.79213130  0.88851889  0.74982789    -0.20800
C1058       C  0.76415239  0.89811250  0.72293579    -0.07400
C1059       C  0.77589936  0.90666163  0.68542242     0.13500
C1060       C  0.81343947  0.89745129  0.67411363    -0.20900
C1061       C  0.83978783  0.88207070  0.70002860    -0.07400
C1062       C  0.83030214  0.88255535  0.73908217     0.13500
C1063       C  0.86036901  0.87708355  0.76938605    -0.24200
H1064       H  0.78404527  0.88549030  0.77931737     0.14700
H1065       H  0.82093174  0.89888392  0.64436563     0.14800
C1066       C  0.74866398  0.92333445  0.65669630    -0.24200
H1067       H  0.84798426  0.87931846  0.79826678     0.05000
H1068       H  0.88248856  0.89952466  0.76650218     0.08200
H1069       H  0.87441683  0.84900387  0.76721351     0.08200
H1070       H  0.73870576  0.95173571  0.66650415     0.08200
H1071       H  0.72372549  0.90421320  0.65276640     0.08200
H1072       H  0.76255436  0.92732090  0.62870501     0.05000
C1073       C  0.82795775  0.81491056  0.53049660    -0.20800
C1074       C  0.81977016  0.80022044  0.56675892    -0.07400
C1075       C  0.78152789  0.78839008  0.57410952     0.13500
C1076       C  0.75261331  0.79544025  0.54718017    -0.20900
C1077       C  0.76003093  0.81420513  0.51292533    -0.07400
C1078       C  0.79857316  0.82232780  0.50370427     0.13500
C1079       C  0.80851203  0.84126738  0.46677845    -0.24200
H1080       H  0.85705882  0.82310669  0.52397707     0.14700
H1081       H  0.72315888  0.78905770  0.55430372     0.14800
C1082       C  0.77010711  0.76908517  0.61058909    -0.24200
H1083       H  0.83986092  0.84521713  0.46375012     0.05000
H1084       H  0.79482873  0.86972860  0.46517480     0.08200
H1085       H  0.79838219  0.82344742  0.44277998     0.08200
H1086       H  0.77217929  0.78925384  0.63471501     0.08200
H1087       H  0.78859060  0.74384351  0.61563819     0.08200
H1088       H  0.74003943  0.75896554  0.60965236     0.05000
C1089       C  0.54474034  0.78023271  0.47079477    -0.20800
C1090       C  0.57996956  0.78074032  0.45119429    -0.07400
C1091       C  0.58879169  0.74928904  0.42760643     0.13500
C1092       C  0.56095811  0.72103699  0.42105881    -0.20900
C1093       C  0.52393917  0.72320773  0.43672629    -0.07400
C1094       C  0.51693232  0.75156883  0.46423313     0.13500
C1095       C  0.47942115  0.75283833  0.48502540    -0.24200
H1096       H  0.53816133  0.80337784  0.49006250     0.14700
H1097       H  0.56683417  0.69898783  0.40031395     0.14800
C1098       C  0.62616698  0.74675668  0.40655590    -0.24200
H1099       H  0.47843138  0.77680287  0.50557036     0.05000
H1100       H  0.47547128  0.72584401  0.50092412     0.08200
H1101       H  0.45536846  0.75640784  0.46473789     0.08200
H1102       H  0.65024550  0.74512845  0.42705591     0.08200
H1103       H  0.62965669  0.77210254  0.38806675     0.08200
H1104       H  0.62762172  0.72102081  0.38827370     0.05000
C1105       C  0.77106131  0.97195392  0.42177651    -0.20800
C1106       C  0.75849275  0.93782563  0.40532965    -0.07400
C1107       C  0.77147165  0.92782607  0.36874531     0.13500
C1108       C  0.79478284  0.95333379  0.34875968    -0.20900
C1109       C  0.80611240  0.98846751  0.36445631    -0.07400
C1110       C  0.79475389  0.99733069  0.40210729     0.13500
C1111       C  0.80650196  0.03356401  0.42196679    -0.24200
H1112       H  0.76135763  0.97936313  0.44998937     0.14700
H1113       H  0.80397807  0.94572702  0.32046652     0.14800
C1114       C  0.76190379  0.88992962  0.35096543    -0.24200
H1115       H  0.79639467  0.05866699  0.40567237     0.05000
H1116       H  0.83808708  0.03441622  0.42507545     0.08200
H1117       H  0.79415524  0.03569562  0.45086398     0.08200
H1118       H  0.73077798  0.88804371  0.34518514     0.08200
H1119       H  0.77072997  0.86649664  0.37027147     0.08200
H1120       H  0.77695222  0.88578556  0.32358102     0.05000
C1121       C  0.59189662  0.96549735  0.36454274    -0.20800
C1122       C  0.58994338  0.92538129  0.36654417    -0.07400
C1123       C  0.55656819  0.90721949  0.35339778     0.13500
C1124       C  0.52367235  0.92927996  0.34624601    -0.20900
C1125       C  0.52406903  0.96907047  0.35090938    -0.07400
C1126       C  0.55918552  0.98762847  0.35719527     0.13500
C1127       C  0.56255190  0.03039757  0.35855065    -0.24200
H1128       H  0.61777989  0.97974210  0.37384619     0.14700
H1129       H  0.49696177  0.91522678  0.33935886     0.14800
C1130       C  0.55487575  0.86453891  0.34980600    -0.24200
H1131       H  0.58377498  0.03990662  0.33722435     0.05000
H1132       H  0.57235569  0.03945960  0.38705098     0.08200
H1133       H  0.53512079  0.04504885  0.35232238     0.08200
H1134       H  0.55922215  0.85090586  0.37785105     0.08200
H1135       H  0.57759076  0.85469729  0.33015465     0.08200
H1136       H  0.52690887  0.85505448  0.33824140     0.05000
C1137       C  0.60636718  0.93357784  0.59993082    -0.20800
C1138       C  0.60695847  0.89573553  0.58730737    -0.07400
C1139       C  0.59677263  0.86592438  0.61158987     0.13500
C1140       C  0.59337110  0.87411523  0.65008603    -0.20900
C1141       C  0.60280504  0.91062900  0.66374479    -0.07400
C1142       C  0.60521944  0.94157842  0.63843570     0.13500
C1143       C  0.61223631  0.98193023  0.65124010    -0.24200
H1144       H  0.61204842  0.95645853  0.58009633     0.14700
H1145       H  0.58937304  0.85086688  0.66991229     0.14800
C1146       C  0.59372518  0.82544280  0.59776351    -0.24200
H1147       H  0.61039267  0.00229307  0.62723593     0.05000
H1148       H  0.64114840  0.98441612  0.66406617     0.08200
H1149       H  0.59036534  0.99034031  0.67223501     0.08200
H1150       H  0.62141646  0.81612391  0.58547628     0.08200
H1151       H  0.57106172  0.82349686  0.57575209     0.08200
H1152       H  0.58630391  0.80558828  0.62110510     0.05000
C1153       C  0.42431293  0.25706496  0.06934666    -0.20800
C1154       C  0.43302788  0.29082528  0.04963068    -0.07400
C1155       C  0.47024606  0.29420702  0.03374381     0.13500
C1156       C  0.49813803  0.26615428  0.04128738    -0.20900
C1157       C  0.49089591  0.23518763  0.06532814    -0.07400
C1158       C  0.45280201  0.22951334  0.07766205     0.13500
C1159       C  0.44266544  0.19571470  0.10178176    -0.24200
H1160       H  0.39584514  0.25352625  0.08085455     0.14700
H1161       H  0.52716767  0.27056407  0.03157132     0.14800
C1162       C  0.48175580  0.32795035  0.00993491    -0.24200
H1163       H  0.41172651  0.19523706  0.10880613     0.05000
H1164       H  0.45885979  0.19661746  0.12869019     0.08200
H1165       H  0.44976795  0.16902484  0.08642426     0.08200
H1166       H  0.48312270  0.35408543  0.02755047     0.08200
H1167       H  0.46103455  0.33199380  0.98648900     0.08200
H1168       H  0.51048271  0.32393531  0.99715184     0.05000
C1169       C  0.67406556  0.16001426  0.01591025    -0.20800
C1170       C  0.67904444  0.18559756  0.04621575    -0.07400
C1171       C  0.71314369  0.20767001  0.04703170     0.13500
C1172       C  0.74273969  0.20009564  0.02098539    -0.20900
C1173       C  0.73956932  0.17141975  0.99347719    -0.07400
C1174       C  0.70373556  0.15276127  0.98960166     0.13500
C1175       C  0.69673939  0.12310753  0.95956040    -0.24200
H1176       H  0.64787873  0.14363035  0.01412709     0.14700
H1177       H  0.76996523  0.21448108  0.02424556     0.14800
C1178       C  0.71910701  0.23911602  0.07557829    -0.24200
H1179       H  0.67088217  0.13093951  0.94293979     0.05000
H1180       H  0.69205200  0.09492875  0.97304525     0.08200
H1181       H  0.72079721  0.12075573  0.93936415     0.08200
H1182       H  0.72092208  0.22745097  0.10470719     0.08200
H1183       H  0.69527309  0.25993805  0.07351347     0.08200
H1184       H  0.74611482  0.25483727  0.07034032     0.05000
C1185       C  0.44688095  0.13358029  0.24765387    -0.20800
C1186       C  0.45236894  0.09399252  0.24991754    -0.07400
C1187       C  0.48014738  0.07667748  0.22627083     0.13500
C1188       C  0.50139613  0.09934951  0.20139551    -0.20900
C1189       C  0.49662349  0.13909766  0.19959505    -0.07400
C1190       C  0.46859958  0.15642915  0.22314610     0.13500
C1191       C  0.46171634  0.19889101  0.22387379    -0.24200
H1192       H  0.42563605  0.14692952  0.26563956     0.14700
H1193       H  0.52271103  0.08571190  0.18372765     0.14800
C1194       C  0.48925133  0.03465546  0.22797256    -0.24200
H1195       H  0.43916965  0.20697260  0.24450559     0.05000
H1196       H  0.45207495  0.20887031  0.19560103     0.08200
H1197       H  0.48829392  0.21391331  0.23238273     0.08200
H1198       H  0.46399248  0.01769547  0.21923938     0.08200
H1199       H  0.49820772  0.02681947  0.25711543     0.08200
H1200       H  0.51304247  0.02675654  0.20868894     0.05000
C1201       C  0.70615729  0.10736969  0.16716516    -0.20800
C1202       C  0.67230912  0.11124471  0.18797018    -0.07400
C1203       C  0.67231351  0.10126138  0.22684346     0.13500
C1204       C  0.70690435  0.09103674  0.24473879    -0.20900
C1205       C  0.74152190  0.09196019  0.22482495    -0.07400
C1206       C  0.74091640  0.09855177  0.18519818     0.13500
C1207       C  0.77704163  0.09768928  0.16194320    -0.24200
H1208       H  0.70623901  0.11540803  0.13748451     0.14700
H1209       H  0.70732680  0.08518676  0.27490162     0.14800
C1210       C  0.63603720  0.10305329  0.24973454    -0.24200
H1211       H  0.77114873  0.10242779  0.13134858     0.05000
H1212       H  0.79116868  0.06949436  0.16491937     0.08200
H1213       H  0.79680128  0.12045055  0.17144996     0.08200
H1214       H  0.61414389  0.08428200  0.23665877     0.08200
H1215       H  0.62491474  0.13266961  0.25070979     0.08200
H1216       H  0.64078558  0.09344582  0.27937290     0.05000
C1217       C  0.61213093  0.24291743  0.29474463    -0.20800
C1218       C  0.60369982  0.26486848  0.26272488    -0.07400
C1219       C  0.60133659  0.30497402  0.26609666     0.13500
C1220       C  0.61076686  0.32240979  0.30074543    -0.20900
C1221       C  0.62374063  0.30065961  0.33153884    -0.07400
C1222       C  0.62222185  0.26032850  0.32916141     0.13500
C1223       C  0.63315457  0.23497119  0.36192014    -0.24200
H1224       H  0.61310471  0.21212022  0.29232039     0.14700
H1225       H  0.61223505  0.35323168  0.30233083     0.14800
C1226       C  0.59118943  0.32955911  0.23254304    -0.24200
H1227       H  0.60905857  0.21553920  0.36851950     0.05000
H1228       H  0.63972755  0.25136451  0.38798317     0.08200
H1229       H  0.65862106  0.21766814  0.35426893     0.08200
H1230       H  0.56270456  0.32127000  0.22131440     0.08200
H1231       H  0.61303653  0.32599390  0.21009182     0.08200
H1232       H  0.59009369  0.36024718  0.24020324     0.05000
C1233       C  0.71809813  0.44867639  0.29302082    -0.20800
C1234       C  0.69254444  0.44955204  0.32382058    -0.07400
C1235       C  0.66479616  0.47901043  0.32483289     0.13500
C1236       C  0.66131898  0.50439859  0.29379106    -0.20900
C1237       C  0.68442757  0.50088811  0.26130603    -0.07400
C1238       C  0.71443134  0.47380699  0.26206581     0.13500
C1239       C  0.74199262  0.46966488  0.22959986    -0.24200
H1240       H  0.74012450  0.42688928  0.29215491     0.14700
H1241       H  0.63765239  0.52440244  0.29315487     0.14800
C1242       C  0.63658532  0.48174077  0.35686491    -0.24200
H1243       H  0.77157502  0.47446569  0.24003522     0.05000
H1244       H  0.73630577  0.49045298  0.20656098     0.08200
H1245       H  0.74021814  0.44045947  0.21774279     0.08200
H1246       H  0.65200360  0.48699397  0.38389629     0.08200
H1247       H  0.62012632  0.45480672  0.35901015     0.08200
H1248       H  0.61591333  0.50543377  0.35254628     0.05000
C1249       C  0.71136966  0.53016983  0.03651599    -0.20800
C1250       C  0.71350306  0.54709734  0.07288231    -0.07400
C1251       C  0.74688354  0.56805048  0.08206491     0.13500
C1252       C  0.77443261  0.57495745  0.05381607    -0.20900
C1253       C  0.76980241  0.56201653  0.01629221    -0.07400
C1254       C  0.73914335  0.53722228  0.00829516     0.13500
C1255       C  0.73433594  0.52026707  0.96934214    -0.24200
H1256       H  0.68679433  0.51280092  0.02940974     0.14700
H1257       H  0.79809528  0.59387365  0.06011825     0.14800
C1258       C  0.75266702  0.58574996  0.12057112    -0.24200
H1259       H  0.70859204  0.50186642  0.96760251     0.05000
H1260       H  0.75975760  0.50261360  0.96240995     0.08200
H1261       H  0.73138527  0.54312692  0.94780576     0.08200
H1262       H  0.75351328  0.56314900  0.14256026     0.08200
H1263       H  0.72911556  0.60610145  0.12666416     0.08200
H1264       H  0.78000115  0.60172178  0.12235796     0.05000
C1265       C  0.55522683  0.62993782  0.24761875    -0.20800
C1266       C  0.55372058  0.58997679  0.24892297    -0.07400
C1267       C  0.52782130  0.57230863  0.27435195     0.13500
C1268       C  0.50430440  0.59514687  0.29735845    -0.20900
C1269       C  0.50546640  0.63504175  0.29536627    -0.07400
C1270       C  0.53162324  0.65266712  0.27030188     0.13500
C1271       C  0.53591688  0.69540954  0.26783686    -0.24200
H1272       H  0.57515178  0.64371868  0.22858797     0.14700
H1273       H  0.48432087  0.58173919  0.31660383     0.14800
C1274       C  0.52375684  0.52962338  0.27691689    -0.24200
H1275       H  0.55975103  0.70377488  0.24885453     0.05000
H1276       H  0.54207285  0.70731428  0.29637398     0.08200
H1277       H  0.50945064  0.70841045  0.25613634     0.08200
H1278       H  0.55094145  0.51670991  0.28700751     0.08200
H1279       H  0.51595863  0.51782370  0.24874654     0.08200
H1280       H  0.50104264  0.52119943  0.29717685     0.05000
C1281       C  0.52060743  0.60863664  0.07205541    -0.20800
C1282       C  0.56021064  0.61469889  0.07636241    -0.07400
C1283       C  0.57920614  0.63768416  0.04945826     0.13500
C1284       C  0.55938047  0.64914971  0.01642725    -0.20900
C1285       C  0.52120301  0.63818387  0.01006696    -0.07400
C1286       C  0.50116242  0.61935292  0.03895099     0.13500
C1287       C  0.45985516  0.60852637  0.03390035    -0.24200
H1288       H  0.50558027  0.59196667  0.09311337     0.14700
H1289       H  0.57448922  0.66433941  0.99432735     0.14800
C1290       C  0.62063658  0.64823300  0.05432582    -0.24200
H1291       H  0.44841375  0.59406212  0.05943564     0.05000
H1292       H  0.45690598  0.58876681  0.00950053     0.08200
H1293       H  0.44245853  0.63450277  0.02862359     0.08200
H1294       H  0.63873322  0.62222536  0.05506305     0.08200
H1295       H  0.62437027  0.66424375  0.08122038     0.08200
H1296       H  0.63078712  0.66657518  0.03078580     0.05000
C1297       C  0.61074050  0.38552092  0.09561851    -0.20800
C1298       C  0.63714662  0.40275408  0.11984960    -0.07400
C1299       C  0.66383191  0.38111750  0.14043149     0.13500
C1300       C  0.66050712  0.34166606  0.13966997    -0.20900
C1301       C  0.62985862  0.32484521  0.12045507    -0.07400
C1302       C  0.60596640  0.34632334  0.09650984     0.13500
C1303       C  0.57388274  0.32842017  0.07429864    -0.24200
H1304       H  0.59056107  0.40300100  0.07986259     0.14700
H1305       H  0.67891949  0.32436324  0.15757810     0.14800
C1306       C  0.69349093  0.39972082  0.16520775    -0.24200
H1307       H  0.55921275  0.34946949  0.05575021     0.05000
H1308       H  0.55224134  0.31674101  0.09398275     0.08200
H1309       H  0.58538656  0.30527896  0.05612343     0.08200
H1310       H  0.67928399  0.41655203  0.18777602     0.08200
H1311       H  0.71157481  0.41887560  0.14781840     0.08200
H1312       H  0.71236620  0.37833204  0.17905912     0.05000
C1313       C  0.49445771  0.42176826  0.14014723    -0.20800
C1314       C  0.49522124  0.46143085  0.14465182    -0.07400
C1315       C  0.46051443  0.48176461  0.14678684     0.13500
C1316       C  0.42594246  0.46244242  0.14016796    -0.20900
C1317       C  0.42532417  0.42326215  0.13136200    -0.07400
C1318       C  0.45991913  0.40222509  0.13435611     0.13500
C1319       C  0.46226145  0.35964945  0.12919372    -0.24200
H1320       H  0.52117685  0.40599270  0.14014061     0.14700
H1321       H  0.39967265  0.47874656  0.13782408     0.14800
C1322       C  0.46014985  0.52421986  0.15303748    -0.24200
H1323       H  0.47699671  0.34685016  0.15405421     0.05000
H1324       H  0.47901069  0.35288255  0.10335139     0.08200
H1325       H  0.43397835  0.34586038  0.12713286     0.08200
H1326       H  0.47658916  0.53848924  0.13025170     0.08200
H1327       H  0.47331452  0.53100262  0.18089698     0.08200
H1328       H  0.43060998  0.53592156  0.15280259     0.05000
C1329       C  0.50615232  0.32681820  0.69072697    -0.20800
C1330       C  0.47457234  0.31834919  0.71360847    -0.07400
C1331       C  0.47213589  0.28103006  0.72930037     0.13500
C1332       C  0.49824436  0.25234673  0.71772488    -0.20900
C1333       C  0.52744760  0.26009959  0.69161170    -0.07400
C1334       C  0.53286657  0.29856343  0.68023141     0.13500
C1335       C  0.56632048  0.30979859  0.65572574    -0.24200
H1336       H  0.50902757  0.35542403  0.67955136     0.14700
H1337       H  0.49370856  0.22311953  0.72650870     0.14800
C1338       C  0.44061299  0.27043897  0.75629265    -0.24200
H1339       H  0.56780197  0.34116408  0.65185407     0.05000
H1340       H  0.56411384  0.29689040  0.62713868     0.08200
H1341       H  0.59338252  0.30037256  0.66936323     0.08200
H1342       H  0.41240235  0.27549476  0.74289024     0.08200
H1343       H  0.44293430  0.28788959  0.78244273     0.08200
H1344       H  0.44214103  0.23996676  0.76466251     0.05000
C1345       C  0.57038292  0.07854505  0.75025683    -0.20800
C1346       C  0.54994464  0.06852716  0.71748798    -0.07400
C1347       C  0.53578374  0.03057513  0.71462001     0.13500
C1348       C  0.54595606  0.00314130  0.74231723    -0.20900
C1349       C  0.56988802  0.01238332  0.77293500    -0.07400
C1350       C  0.58012258  0.05125086  0.77802567     0.13500
C1351       C  0.60285855  0.06386644  0.81220592    -0.24200
H1352       H  0.58029800  0.10761983  0.75337331     0.14700
H1353       H  0.53852948  0.97350868  0.73780179     0.14800
C1354       C  0.51276280  0.01767908  0.68077181    -0.24200
H1355       H  0.60647605  0.09529740  0.81286610     0.05000
H1356       H  0.63184887  0.05102727  0.81216186     0.08200
H1357       H  0.58768523  0.05529686  0.83843567     0.08200
H1358       H  0.52908946  0.02265773  0.65429004     0.08200
H1359       H  0.48529799  0.03354576  0.67959619     0.08200
H1360       H  0.50593079  0.98681913  0.68218552     0.05000
C1361       C  0.63472690  0.26501806  0.56425582    -0.20800
C1362       C  0.61060312  0.23814444  0.54703241    -0.07400
C1363       C  0.60752615  0.23759449  0.50692784     0.13500
C1364       C  0.62794664  0.26438648  0.48555100    -0.20900
C1365       C  0.65138241  0.29181134  0.50282227    -0.07400
C1366       C  0.65478956  0.29202864  0.54278299     0.13500
C1367       C  0.67714802  0.32219247  0.56325438    -0.24200
H1368       H  0.63663537  0.26601077  0.59491371     0.14700
H1369       H  0.62557161  0.26393450  0.45493387     0.14800
C1370       C  0.58346110  0.20861742  0.48613917    -0.24200
H1371       H  0.67566870  0.31877553  0.59451448     0.05000
H1372       H  0.66471277  0.35038256  0.55612130     0.08200
H1373       H  0.70772866  0.32081272  0.55509746     0.08200
H1374       H  0.55267672  0.21342512  0.49201359     0.08200
H1375       H  0.59181952  0.17939446  0.49499139     0.08200
H1376       H  0.58720972  0.21056872  0.45494197     0.05000
C1377       C  0.66219114  0.02064066  0.54757123    -0.20800
C1378       C  0.63968976  0.01042114  0.51598516    -0.07400
C1379       C  0.60838489  0.03363379  0.50571846     0.13500
C1380       C  0.59847059  0.06455862  0.52888503    -0.20900
C1381       C  0.61839187  0.07235162  0.56266702    -0.07400
C1382       C  0.65155468  0.05118569  0.57136222     0.13500
C1383       C  0.67407878  0.05924689  0.60685797    -0.24200
H1384       H  0.68617653  0.00270066  0.55552194     0.14700
H1385       H  0.57319129  0.08108802  0.52201447     0.14800
C1386       C  0.58477247  0.02522079  0.47090390    -0.24200
H1387       H  0.69871650  0.03945424  0.60998033     0.05000
H1388       H  0.65554126  0.05613762  0.63214633     0.08200
H1389       H  0.68521109  0.08882224  0.60587158     0.08200
H1390       H  0.56989752  0.99751695  0.47392098     0.08200
H1391       H  0.60374617  0.02413821  0.44576687     0.08200
H1392       H  0.56265037  0.04744824  0.46589706     0.05000
C1393       C  0.49980993  0.13200884  0.47026615    -0.20800
C1394       C  0.47570546  0.13425720  0.50174885    -0.07400
C1395       C  0.43559072  0.13233248  0.49660693     0.13500
C1396       C  0.42072268  0.12547232  0.46023210    -0.20900
C1397       C  0.44506232  0.11982487  0.42919168    -0.07400
C1398       C  0.48492113  0.12530358  0.43395639     0.13500
C1399       C  0.51252019  0.12265948  0.40135903    -0.24200
H1400       H  0.53045463  0.13487754  0.47409305     0.14700
H1401       H  0.39030424  0.12048367  0.45684949     0.14800
C1402       C  0.40855933  0.13458977  0.52979786    -0.24200
H1403       H  0.52906683  0.14955431  0.39937057     0.05000
H1404       H  0.49780759  0.11829836  0.37379547     0.08200
H1405       H  0.53267791  0.09867429  0.40622269     0.08200
H1406       H  0.41082945  0.16291036  0.54357168     0.08200
H1407       H  0.41568379  0.11202019  0.55072377     0.08200
H1408       H  0.37831728  0.13061482  0.52093700     0.05000
C1409       C  0.27216854  0.06957269  0.42634568    -0.20800
C1410       C  0.30621649  0.05104984  0.43731544    -0.07400
C1411       C  0.30936247  0.03944216  0.47606365     0.13500
C1412       C  0.28041906  0.04917897  0.50248433    -0.20900
C1413       C  0.24825894  0.07071367  0.49198876    -0.07400
C1414       C  0.24363694  0.07979839  0.45296549     0.13500
C1415       C  0.20860614  0.10087742  0.43922010    -0.24200
H1416       H  0.26861098  0.07795627  0.39699715     0.14700
H1417       H  0.28444619  0.04242978  0.53221109     0.14800
C1418       C  0.34343354  0.01733898  0.49049644    -0.24200
H1419       H  0.20842855  0.10394882  0.40789030     0.05000
H1420       H  0.20746174  0.12993301  0.45151755     0.08200
H1421       H  0.18253060  0.08496441  0.44749743     0.08200
H1422       H  0.36947321  0.03531626  0.48958429     0.08200
H1423       H  0.34757160  0.99126892  0.47312315     0.08200
H1424       H  0.33961020  0.00823751  0.52039423     0.05000
C1425       C  0.17571199  0.97774755  0.71036882    -0.20800
C1426       C  0.19032590  0.98761130  0.74627195    -0.07400
C1427       C  0.21512962  0.01931521  0.74869834     0.13500
C1428       C  0.22228448  0.04172985  0.71637715    -0.20900
C1429       C  0.20458367  0.03439411  0.68114304    -0.07400
C1430       C  0.18216886  0.00077050  0.67796252     0.13500
C1431       C  0.16410843  0.98930431  0.64089472    -0.24200
H1432       H  0.15621043  0.95385751  0.70831711     0.14700
H1433       H  0.23997780  0.06684285  0.71966836     0.14800
C1434       C  0.23315522  0.03136954  0.78564841    -0.24200
H1435       H  0.14989836  0.96110746  0.64294965     0.05000
H1436       H  0.18638535  0.98735186  0.61860763     0.08200
H1437       H  0.14198037  0.01035451  0.63244209     0.08200
H1438       H  0.22678179  0.01144843  0.80918430     0.08200
H1439       H  0.22266991  0.06017904  0.79356147     0.08200
H1440       H  0.26470797  0.03236605  0.78236500     0.05000
C1441       C  0.08586110  0.20506521  0.45883155    -0.20800
C1442       C  0.09478653  0.24392606  0.45558414    -0.07400
C1443       C  0.12120422  0.26030281  0.48118729     0.13500
C1444       C  0.13989030  0.23697325  0.50730190    -0.20900
C1445       C  0.13368406  0.19739317  0.50857275    -0.07400
C1446       C  0.10529665  0.18136472  0.48464877     0.13500
C1447       C  0.09554784  0.13957244  0.48542638    -0.24200
H1448       H  0.06430506  0.19288830  0.44044351     0.14700
H1449       H  0.16039571  0.25001533  0.52636413     0.14800
C1450       C  0.12937382  0.30255462  0.48208751    -0.24200
H1451       H  0.07229857  0.13249864  0.46510640     0.05000
H1452       H  0.08567267  0.13144059  0.51417996     0.08200
H1453       H  0.12097794  0.12238556  0.47747501     0.08200
H1454       H  0.10215486  0.31862653  0.48477835     0.08200
H1455       H  0.14451033  0.31136036  0.45594494     0.08200
H1456       H  0.14789427  0.31059366  0.50642808     0.05000
C1457       C  0.10324645  0.20103225  0.66944812    -0.20800
C1458       C  0.10959468  0.16166326  0.67371511    -0.07400
C1459       C  0.10260418  0.14465851  0.70939343     0.13500
C1460       C  0.09476903  0.16784718  0.74081739    -0.20900
C1461       C  0.09342810  0.20759403  0.73741374    -0.07400
C1462       C  0.09533297  0.22430569  0.70111207     0.13500
C1463       C  0.09195332  0.26679281  0.69631876    -0.24200
H1464       H  0.10910033  0.21423924  0.64231018     0.14700
H1465       H  0.09208540  0.15506297  0.76866557     0.14800
C1466       C  0.10654936  0.10216971  0.71492275    -0.24200
H1467       H  0.09479438  0.27535118  0.66615661     0.05000
H1468       H  0.11473551  0.28128186  0.71287434     0.08200
H1469       H  0.06357216  0.27652396  0.70658914     0.08200
H1470       H  0.13631710  0.09271970  0.70942140     0.08200
H1471       H  0.08694292  0.08711731  0.69519901     0.08200
H1472       H  0.09921008  0.09354243  0.74430358     0.05000
C1473       C  0.35280367  0.18349098  0.60986112    -0.20800
C1474       C  0.33721799  0.14697629  0.61279564    -0.07400
C1475       C  0.35670699  0.11789757  0.63211174     0.13500
C1476       C  0.39369567  0.12493130  0.64465880    -0.20900
C1477       C  0.41132897  0.16006006  0.63727432    -0.07400
C1478       C  0.38986899  0.19067059  0.62225997     0.13500
C1479       C  0.40615028  0.23012360  0.61728749    -0.24200
H1480       H  0.33572437  0.20646295  0.59801058     0.14700
H1481       H  0.41019309  0.10184909  0.65705654     0.14800
C1482       C  0.33875855  0.07944519  0.63864779    -0.24200
H1483       H  0.38414550  0.25064446  0.60716086     0.05000
H1484       H  0.42950405  0.22969051  0.59606239     0.08200
H1485       H  0.41724064  0.24074767  0.64484937     0.08200
H1486       H  0.33074778  0.06651424  0.61101928     0.08200
H1487       H  0.31277575  0.08258946  0.65637584     0.08200
H1488       H  0.35863400  0.05966276  0.65344585     0.05000
C1489       C  0.28097872  0.24784540  0.66902812    -0.20800
C1490       C  0.25578258  0.25568146  0.63951275    -0.07400
C1491       C  0.25943406  0.29050137  0.61959772     0.13500
C1492       C  0.28887386  0.31638616  0.62954588    -0.20900
C1493       C  0.31592390  0.30741921  0.65786589    -0.07400
C1494       C  0.31143127  0.27204546  0.67781989     0.13500
C1495       C  0.33884286  0.25776222  0.70787593    -0.24200
H1496       H  0.27873014  0.22058551  0.68335468     0.14700
H1497       H  0.29104839  0.34334511  0.61477871     0.14800
C1498       C  0.23204517  0.30029630  0.58808673    -0.24200
H1499       H  0.33148525  0.22879052  0.71817473     0.05000
H1500       H  0.33815925  0.27671768  0.73305247     0.08200
H1501       H  0.36806704  0.25581215  0.69587258     0.08200
H1502       H  0.20233327  0.30026941  0.59912294     0.08200
H1503       H  0.23438492  0.27909096  0.56486618     0.08200
H1504       H  0.23798116  0.32891944  0.57607881     0.05000
C1505       C  0.09758493  0.44552296  0.23961770    -0.20800
C1506       C  0.07759120  0.48015449  0.24362836    -0.07400
C1507       C  0.04705839  0.48199793  0.26957421     0.13500
C1508       C  0.03908146  0.45042366  0.29275157    -0.20900
C1509       C  0.06171118  0.41715970  0.29174043    -0.07400
C1510       C  0.09036747  0.41414872  0.26364173     0.13500
C1511       C  0.11569414  0.37949556  0.26112897    -0.24200
H1512       H  0.12171636  0.44439103  0.22041124     0.14700
H1513       H  0.01666070  0.45278829  0.31379173     0.14800
C1514       C  0.02437444  0.51822572  0.27438619    -0.24200
H1515       H  0.13741594  0.38238926  0.23840526     0.05000
H1516       H  0.09810939  0.35399161  0.25472511     0.08200
H1517       H  0.13104397  0.37524639  0.28840664     0.08200
H1518       H  0.01122731  0.52635209  0.24686670     0.08200
H1519       H  0.04330241  0.54160247  0.28420802     0.08200
H1520       H  0.00113097  0.51484879  0.29550356     0.05000
C1521       C  0.05470262  0.70111533  0.22315746    -0.20800
C1522       C  0.05379873  0.66899566  0.19922213    -0.07400
C1523       C  0.02354338  0.66624603  0.17249357     0.13500
C1524       C  0.99736897  0.69685159  0.16832715    -0.20900
C1525       C  0.00072688  0.73051963  0.18979983    -0.07400
C1526       C  0.02860840  0.73155476  0.21888046     0.13500
C1527       C  0.03183400  0.76585060  0.24436670    -0.24200
H1528       H  0.07712641  0.70323135  0.24432697     0.14700
H1529       H  0.97683260  0.69618865  0.14525439     0.14800
C1530       C  0.02066841  0.63276834  0.14594209    -0.24200
H1531       H  0.05541965  0.76265597  0.26528423     0.05000
H1532       H  0.00466675  0.76969955  0.26012338     0.08200
H1533       H  0.03731278  0.79184838  0.22747764     0.08200
H1534       H  0.01616504  0.60623770  0.16242368     0.08200
H1535       H  0.04732638  0.63021555  0.12908512     0.08200
H1536       H  0.99634400  0.63587618  0.12585516     0.05000
C1537       C  0.24911331  0.43351177  0.14098364    -0.20800
C1538       C  0.24615170  0.43574609  0.10124938    -0.07400
C1539       C  0.21956689  0.46175778  0.08522877     0.13500
C1540       C  0.19837363  0.48568428  0.10922070    -0.20900
C1541       C  0.20282392  0.48478028  0.14883705    -0.07400
C1542       C  0.22812029  0.45757655  0.16494657     0.13500
C1543       C  0.23460483  0.45432857  0.20713904    -0.24200
H1544       H  0.26890819  0.41335418  0.15360854     0.14700
H1545       H  0.17856994  0.50590366  0.09670737     0.14800
C1546       C  0.21390241  0.46572315  0.04301493    -0.24200
H1547       H  0.25639942  0.43236343  0.21422229     0.05000
H1548       H  0.20764848  0.44595159  0.22140299     0.08200
H1549       H  0.24496805  0.48191698  0.21859630     0.08200
H1550       H  0.20392260  0.43828023  0.03088730     0.08200
H1551       H  0.24108352  0.47449833  0.02943868     0.08200
H1552       H  0.19208377  0.48765556  0.03592068     0.05000
C1553       C  0.25201786  0.70004702  0.10546816    -0.20800
C1554       C  0.23020937  0.73355131  0.10442496    -0.07400
C1555       C  0.19016198  0.73150798  0.10947180     0.13500
C1556       C  0.17335957  0.69657037  0.11905688    -0.20900
C1557       C  0.19587682  0.66401753  0.12485455    -0.07400
C1558       C  0.23528969  0.66522700  0.11583438     0.13500
C1559       C  0.26053291  0.63050040  0.11836588    -0.24200
H1560       H  0.28259232  0.70144760  0.10061761     0.14700
H1561       H  0.14320820  0.69571396  0.12614441     0.14800
C1562       C  0.16532524  0.76649056  0.10652432    -0.24200
H1563       H  0.27377003  0.62502859  0.09030955     0.05000
H1564       H  0.24445288  0.60458100  0.12659224     0.08200
H1565       H  0.28359540  0.63545128  0.13942404     0.08200
H1566       H  0.16866542  0.77965726  0.07812914     0.08200
H1567       H  0.17380682  0.78717664  0.12862193     0.08200
H1568       H  0.13458616  0.75978555  0.11067274     0.05000
C1569       C  0.27636461  0.58061869  0.31443026    -0.20800
C1570       C  0.27442704  0.59037037  0.27588717    -0.07400
C1571       C  0.30688978  0.60565643  0.25799728     0.13500
C1572       C  0.33945308  0.61423571  0.27987380    -0.20900
C1573       C  0.33962148  0.60890591  0.31935689    -0.07400
C1574       C  0.30854647  0.59007792  0.33647698     0.13500
C1575       C  0.30837603  0.58247488  0.37848429    -0.24200
H1576       H  0.25147010  0.56831899  0.32794304     0.14700
H1577       H  0.36325013  0.62890237  0.26682232     0.14800
C1578       C  0.30619201  0.61487526  0.21638200    -0.24200
H1579       H  0.28201413  0.56736263  0.38739419     0.05000
H1580       H  0.30999540  0.60971885  0.39441959     0.08200
H1581       H  0.33338014  0.56444824  0.38608143     0.08200
H1582       H  0.28412006  0.63694240  0.21064997     0.08200
H1583       H  0.33421831  0.62566737  0.20647216     0.08200
H1584       H  0.29935376  0.58878911  0.19990965     0.05000
C1585       C  0.30138201  0.65774168  0.51861011    -0.20800
C1586       C  0.26509680  0.67294002  0.51014772    -0.07400
C1587       C  0.26214652  0.69929703  0.48006863     0.13500
C1588       C  0.29420811  0.70690256  0.45720662    -0.20900
C1589       C  0.32954151  0.68805440  0.46261838    -0.07400
C1590       C  0.33351873  0.66462443  0.49521393     0.13500
C1591       C  0.37109697  0.64611945  0.50526377    -0.24200
H1592       H  0.30383004  0.63763876  0.54163806     0.14700
H1593       H  0.29061402  0.72581586  0.43319788     0.14800
C1594       C  0.22451706  0.71834211  0.47110553    -0.24200
H1595       H  0.36959886  0.63100694  0.53287784     0.05000
H1596       H  0.39372454  0.66817034  0.50746524     0.08200
H1597       H  0.37904995  0.62479767  0.48344420     0.08200
H1598       H  0.21437947  0.73426315  0.49636669     0.08200
H1599       H  0.20280051  0.69680929  0.46311204     0.08200
H1600       H  0.22710756  0.73876823  0.44722137     0.05000
C1601       C  0.03662847  0.68481049  0.54826986    -0.20800
C1602       C  0.07341760  0.69232831  0.56305261    -0.07400
C1603       C  0.07854717  0.72686972  0.58341987     0.13500
C1604       C  0.04650188  0.75069348  0.59097912    -0.20900
C1605       C  0.00924387  0.74090080  0.57903818    -0.07400
C1606       C  0.00486399  0.70814586  0.55613925     0.13500
C1607       C  0.96645931  0.69601720  0.54084244    -0.24200
H1608       H  0.03195835  0.65923322  0.53165850     0.14700
H1609       H  0.05006170  0.77534330  0.60916230     0.14800
C1610       C  0.11698965  0.73765147  0.59934434    -0.24200
H1611       H  0.96806511  0.69333502  0.50952906     0.05000
H1612       H  0.94341388  0.71675796  0.54735192     0.08200
H1613       H  0.95853184  0.66796469  0.55304581     0.08200
H1614       H  0.13790869  0.74072412  0.57593882     0.08200
H1615       H  0.12702366  0.71538858  0.61940529     0.08200
H1616       H  0.11580301  0.76514721  0.61491100     0.05000
C1617       C  0.31692476  0.51121569  0.62487309    -0.20800
C1618       C  0.29840353  0.48190318  0.64481157    -0.07400
C1619       C  0.25806091  0.47938168  0.64308077     0.13500
C1620       C  0.23736457  0.50700642  0.62281088    -0.20900
C1621       C  0.25584946  0.53668075  0.60358678    -0.07400
C1622       C  0.29616233  0.53859189  0.60425748     0.13500
C1623       C  0.31727539  0.57031170  0.58481239    -0.24200
H1624       H  0.34781157  0.51342504  0.62636654     0.14700
H1625       H  0.20643468  0.50516562  0.62149341     0.14800
C1626       C  0.23669648  0.44687446  0.66106241    -0.24200
H1627       H  0.34865446  0.56824602  0.58938489     0.05000
H1628       H  0.30746214  0.59810000  0.59630260     0.08200
H1629       H  0.31191896  0.56912714  0.55382857     0.08200
H1630       H  0.23993660  0.44764913  0.69232655     0.08200
H1631       H  0.24787951  0.41950992  0.64980303     0.08200
H1632       H  0.20559575  0.44815768  0.65465219     0.05000
C1633       C  0.05083595  0.57688716  0.63767134    -0.20800
C1634       C  0.08303956  0.55360312  0.63289073    -0.07400
C1635       C  0.08032199  0.51425102  0.64104635     0.13500
C1636       C  0.04427855  0.49827468  0.64859547    -0.20900
C1637       C  0.01123019  0.52097750  0.64787897    -0.07400
C1638       C  0.01480112  0.56099925  0.64472579     0.13500
C1639       C  0.98056729  0.58700781  0.64779318    -0.24200
H1640       H  0.05301198  0.60711450  0.63168286     0.14700
H1641       H  0.04162980  0.46780862  0.65284819     0.14800
C1642       C  0.11538776  0.48919617  0.64086696    -0.24200
H1643       H  0.95986520  0.58084204  0.62474954     0.05000
H1644       H  0.96657374  0.58286211  0.67568460     0.08200
H1645       H  0.98874174  0.61748737  0.64548885     0.08200
H1646       H  0.13612970  0.49975538  0.66228945     0.08200
H1647       H  0.12925521  0.48955701  0.61271162     0.08200
H1648       H  0.10831592  0.45917219  0.64783436     0.05000
C1649       C  0.10733127  0.58868828  0.35663370    -0.20800
C1650       C  0.13148601  0.61534314  0.33971558    -0.07400
C1651       C  0.14873608  0.64439392  0.36129845     0.13500
C1652       C  0.14473573  0.64349103  0.40058956    -0.20900
C1653       C  0.12448174  0.61393133  0.41779240    -0.07400
C1654       C  0.10365804  0.58757541  0.39588755     0.13500
C1655       C  0.08049182  0.55632962  0.41391897    -0.24200
H1656       H  0.09404519  0.56678940  0.33937507     0.14700
H1657       H  0.16058627  0.66341653  0.41802556     0.14800
C1658       C  0.17424865  0.67385061  0.34339753    -0.24200
H1659       H  0.06571563  0.53854134  0.39235620     0.05000
H1660       H  0.05848641  0.56899597  0.43275442     0.08200
H1661       H  0.09942556  0.53737323  0.43069912     0.08200
H1662       H  0.15770305  0.69057644  0.32225676     0.08200
H1663       H  0.19870058  0.65965938  0.32911438     0.08200
H1664       H  0.18594951  0.69397939  0.36477298     0.05000
C1665       C  0.12743196  0.41094723  0.48033373    -0.20800
C1666       C  0.12831469  0.41052894  0.44044181    -0.07400
C1667       C  0.14537756  0.44141760  0.42116466     0.13500
C1668       C  0.15738725  0.47343983  0.44205165    -0.20900
C1669       C  0.15204934  0.47540296  0.48144454    -0.07400
C1670       C  0.13831589  0.44333734  0.50096887     0.13500
C1671       C  0.13255741  0.44433969  0.54320093    -0.24200
H1672       H  0.11442905  0.38732808  0.49519823     0.14700
H1673       H  0.16805304  0.49829603  0.42725240     0.14800
C1674       C  0.14780644  0.44231601  0.37854543    -0.24200
H1675       H  0.12162134  0.41678271  0.55415672     0.05000
H1676       H  0.11144981  0.46686031  0.55040141     0.08200
H1677       H  0.16017120  0.45053583  0.55752319     0.08200
H1678       H  0.11871129  0.44156082  0.36599677     0.08200
H1679       H  0.16451926  0.41742295  0.36836581     0.08200
H1680       H  0.16208146  0.46858237  0.36826815     0.05000
loop_ 
_geom_bond_atom_site_label_1 
_geom_bond_atom_site_label_2 
_geom_bond_distance 
_geom_bond_site_symmetry_2 
_ccdc_geom_bond_type 
O1          Cr19   1.996       .  S
O1            C9   1.268       .  A
O2          Cr19   1.952       .  S
O2            C3   1.250       .  A
C3            O4   1.276       .  A
C3         C1586   1.493       .  S
O4          Cr20   2.069       .  S
O5          Cr20   2.027       .  S
O5            C6   1.275       .  A
C6            O7   1.268       .  A
C6         C1602   1.515       .  S
O7          Cr21   2.009       .  S
O8          Cr21   1.952       .  S
O8            C9   1.255       .  A
C9         C1653   1.443       .  S
O10         Cr19   1.980       .  S
O10          C18   1.255       .  A
O11         Cr19   2.013       .  S
O11          C12   1.267       .  A
C12          O13   1.261       .  A
C12        C1621   1.478       .  S
O13         Cr20   1.977       .  S
O14         Cr20   2.045       .  S
O14          C15   1.275       .  A
C15          O16   1.254       .  A
C15        C1634   1.471       .  S
O16         Cr21   1.954       .  S
O17         Cr21   2.008       .  S
O17          C18   1.262       .  A
C18        C1669   1.474       .  S
Cr19         O22   1.765       .  S
Cr20         O22   1.774       .  S
Cr21         O22   1.758       .  S
O23         Cr41   1.994       .  S
O23          C31   1.266       .  A
O24         Cr41   1.951       .  S
O24          C25   1.249       .  A
C25          O26   1.273       .  A
C25        C1506   1.482       .  S
O26         Cr42   2.057       .  S
O27         Cr42   2.008       .  S
O27          C28   1.269       .  A
C28          O29   1.271       .  A
C28        C1522   1.505       .  S
O29         Cr43   2.022       .  S
O30         Cr43   1.948       .  S
O30          C31   1.253       .  A
C31        C1650   1.444       .  S
O32         Cr41   1.977       .  S
O32          C40   1.256       .  A
O33         Cr41   2.010       .  S
O33          C34   1.267       .  A
C34          O35   1.263       .  A
C34        C1541   1.489       .  S
O35         Cr42   1.974       .  S
O36         Cr42   2.045       .  S
O36          C37   1.275       .  A
C37          O38   1.255       .  A
C37        C1557   1.472       .  S
O38         Cr43   1.955       .  S
O39         Cr43   2.019       .  S
O39          C40   1.266       .  A
C40        C1570   1.476       .  S
Cr41         O44   1.761       .  S
Cr42         O44   1.772       .  S
Cr43         O44   1.760       .  S
O45         Cr63   1.968       .  S
O45          C53   1.263       .  A
O46         Cr63   1.991       .  S
O46          C47   1.257       .  A
C47          O48   1.277       .  A
C47        C1413   1.506       .  S
O48         Cr64   2.051       .  S
O49         Cr64   2.041       .  S
O49          C50   1.271       .  A
C50          O51   1.261       .  A
C50        C1429   1.514       .  S
O51         Cr65   1.984       .  S
O52         Cr65   1.944       .  S
O52          C53   1.254       .  A
C53        C1474   1.428       .  S
O54         Cr63   1.979       .  S
O54          C62   1.254       .  A
O55         Cr63   1.946       .  S
O55          C56   1.257       .  A
C56          O57   1.270       .  A
C56        C1445   1.487       .  S
O57         Cr64   2.027       .  S
O58         Cr64   2.024       .  S
O58          C59   1.270       .  A
C59          O60   1.255       .  A
C59        C1458   1.474       .  S
O60         Cr65   1.959       .  S
O61         Cr65   2.006       .  S
O61          C62   1.266       .  A
C62        C1490   1.479       .  S
Cr63         O66   1.772       .  S
Cr64         O66   1.773       .  S
Cr65         O66   1.771       .  S
O67         Cr85   1.962       .  S
O67          C75   1.259       .  A
O68         Cr85   1.971       .  S
O68          C69   1.250       .  A
C69          O70   1.274       .  A
C69        C1333   1.497       .  S
O70         Cr86   2.054       .  S
O71         Cr86   2.040       .  S
O71          C72   1.274       .  A
C72          O73   1.258       .  A
C72        C1346   1.506       .  S
O73         Cr87   1.978       .  S
O74         Cr87   1.965       .  S
O74          C75   1.265       .  A
C75        C1477   1.448       .  S
O76         Cr85   1.988       .  S
O76          C84   1.254       .  A
O77         Cr85   1.959       .  S
O77          C78   1.260       .  A
C78          O79   1.278       .  A
C78        C1362   1.485       .  S
O79         Cr86   2.036       .  S
O80         Cr86   2.018       .  S
O80          C81   1.268       .  A
C81          O82   1.258       .  A
C81        C1381   1.479       .  S
O82         Cr87   1.972       .  S
O83         Cr87   1.998       .  S
O83          C84   1.261       .  A
C84        C1394   1.471       .  S
Cr85         O88   1.767       .  S
Cr86         O88   1.763       .  S
Cr87         O88   1.764       .  S
O89        Cr107   1.991       .  S
O89          C97   1.267       .  A
O90        Cr107   1.947       .  S
O90          C91   1.247       .  A
C91          O92   1.278       .  A
C91        C1237   1.490       .  S
O92        Cr108   2.077       .  S
O93        Cr108   2.008       .  S
O93          C94   1.269       .  A
C94          O95   1.269       .  A
C94        C1250   1.508       .  S
O95        Cr109   2.016       .  S
O96        Cr109   1.940       .  S
O96          C97   1.249       .  A
C97        C1298   1.431       .  S
O98        Cr107   1.971       .  S
O98         C106   1.254       .  A
O99        Cr107   2.010       .  S
O99         C100   1.266       .  A
C100        O101   1.262       .  A
C100       C1266   1.488       .  S
O101       Cr108   1.970       .  S
O102       Cr108   2.064       .  S
O102        C103   1.280       .  A
C103        O104   1.255       .  A
C103       C1282   1.489       .  S
O104       Cr109   1.940       .  S
O105       Cr109   2.029       .  S
O105        C106   1.268       .  A
C106       C1314   1.476       .  S
Cr107       O110   1.754       .  S
Cr108       O110   1.762       .  S
Cr109       O110   1.756       .  S
O111       Cr129   1.992       .  S
O111        C119   1.268       .  A
O112       Cr129   1.942       .  S
O112        C113   1.248       .  A
C113        O114   1.276       .  A
C113       C1157   1.494       .  S
O114       Cr130   2.073       .  S
O115       Cr130   2.023       .  S
O115        C116   1.272       .  A
C116        O117   1.267       .  A
C116       C1170   1.507       .  S
O117       Cr131   2.013       .  S
O118       Cr131   1.934       .  S
O118        C119   1.251       .  A
C119       C1301   1.435       .  S
O120       Cr129   1.977       .  S
O120        C128   1.253       .  A
O121       Cr129   2.002       .  S
O121        C122   1.265       .  A
C122        O123   1.264       .  A
C122       C1189   1.493       .  S
O123       Cr130   1.974       .  S
O124       Cr130   2.059       .  S
O124        C125   1.279       .  A
C125        O126   1.254       .  A
C125       C1202   1.475       .  S
O126       Cr131   1.950       .  S
O127       Cr131   2.018       .  S
O127        C128   1.263       .  A
C128       C1218   1.475       .  S
Cr129       O132   1.760       .  S
Cr130       O132   1.771       .  S
Cr131       O132   1.759       .  S
O133       Cr151   1.988       .  S
O133        C141   1.267       .  A
O134       Cr151   1.951       .  S
O134        C135   1.253       .  A
C135        O136   1.278       .  A
C135       C1077   1.494       .  S
O136       Cr152   2.069       .  S
O137       Cr152   2.006       .  S
O137        C138   1.267       .  A
C138        O139   1.268       .  A
C138       C1090   1.507       .  S
O139       Cr153   2.021       .  S
O140       Cr153   1.947       .  S
O140        C141   1.251       .  A
C141       C1138   1.444       .  S
O142       Cr151   1.980       .  S
O142        C150   1.259       .  A
O143       Cr151   2.005       .  S
O143        C144   1.266       .  A
C144        O145   1.259       .  A
C144       C1106   1.480       .  S
O145       Cr152   1.971       .  S
O146       Cr152   2.063       .  S
O146        C147   1.279       .  A
C147        O148   1.249       .  A
C147       C1122   1.477       .  S
O148       Cr153   1.926       .  S
O149       Cr153   2.016       .  S
O149        C150   1.266       .  A
C150       C1378   1.480   1_565  S
Cr151       O154   1.763       .  S
Cr152       O154   1.772       .  S
Cr153       O154   1.762       .  S
O155       Cr173   1.961       .  S
O155        C163   1.260       .  A
O156       Cr173   1.968       .  S
O156        C157   1.246       .  A
C157        O158   1.273       .  A
C157       C1349   1.495   1_565  S
O158       Cr174   2.060       .  S
O159       Cr174   2.028       .  S
O159        C160   1.271       .  A
C160        O161   1.266       .  A
C160       C1010   1.521       .  S
O161       Cr175   2.001       .  S
O162       Cr175   1.976       .  S
O162        C163   1.268       .  A
C163       C1141   1.455       .  S
O164       Cr173   1.993       .  S
O164        C172   1.253       .  A
O165       Cr173   1.956       .  S
O165        C166   1.262       .  A
C166        O167   1.277       .  A
C166       C1026   1.470       .  S
O167       Cr174   2.025       .  S
O168       Cr174   2.024       .  S
O168        C169   1.271       .  A
C169        O170   1.256       .  A
C169       C1042   1.480       .  S
O170       Cr175   1.957       .  S
O171       Cr175   2.008       .  S
O171        C172   1.261       .  A
C172       C1058   1.487       .  S
Cr173       O176   1.774       .  S
Cr174       O176   1.762       .  S
Cr175       O176   1.762       .  S
O177       Cr195   2.004       .  S
O177        C185   1.271       .  A
O178       Cr195   1.940       .  S
O178        C179   1.245       .  A
C179        O180   1.278       .  A
C179        C930   1.490   1_554  S
O180       Cr196   2.076       .  S
O181       Cr196   2.045       .  S
O181        C182   1.274       .  A
C182        O183   1.261       .  A
C182        C946   1.516       .  S
O183       Cr197   1.999       .  S
O184       Cr197   1.930       .  S
O184        C185   1.248       .  A
C185        C994   1.433       .  S
O186       Cr195   1.982       .  S
O186        C194   1.254       .  A
O187       Cr195   2.014       .  S
O187        C188   1.270       .  A
C188        O189   1.266       .  A
C188        C962   1.489   1_554  S
O189       Cr196   1.988       .  S
O190       Cr196   2.075       .  S
O190        C191   1.284       .  A
C191        O192   1.254       .  A
C191        C978   1.484       .  S
O192       Cr197   1.933       .  S
O193       Cr197   2.014       .  S
O193        C194   1.262       .  A
C194       C1554   1.475       .  S
Cr195       O198   1.755       .  S
Cr196       O198   1.770       .  S
Cr197       O198   1.752       .  S
O199       Cr217   1.997       .  S
O199        C207   1.269       .  A
O200       Cr217   1.940       .  S
O200        C201   1.245   1_455  A
C201        O202   1.278       .  A
C201       C1525   1.490   1_655  S
O202       Cr218   2.078       .  S
O203       Cr218   2.017       .  S
O203        C204   1.270       .  A
C204        O205   1.267       .  A
C204        C866   1.506       .  S
O205       Cr219   2.013       .  S
O206       Cr219   1.932   1_455  S
O206        C207   1.247       .  A
C207        C997   1.433       .  S
O208       Cr217   1.978       .  S
O208        C216   1.255       .  A
O209       Cr217   2.020   1_655  S
O209        C210   1.270       .  A
C210        O211   1.262       .  A
C210        C885   1.495       .  S
O211       Cr218   1.969       .  S
O212       Cr218   2.065       .  S
O212        C213   1.282       .  A
C213        O214   1.255       .  A
C213        C898   1.484       .  S
O214       Cr219   1.938       .  S
O215       Cr219   2.033   1_455  S
O215        C216   1.268       .  A
C216        C914   1.483       .  S
Cr217       O220   1.753   1_455  S
Cr218       O220   1.767       .  S
Cr219       O220   1.755       .  S
O221       Cr239   1.996       .  S
O221        C229   1.267       .  A
O222       Cr239   1.949       .  S
O222        C223   1.251   1_565  A
C223        O224   1.279       .  A
C223        C949   1.500   1_545  S
O224       Cr240   2.077       .  S
O225       Cr240   2.023       .  S
O225        C226   1.276       .  A
C226        O227   1.271       .  A
C226       C1410   1.523       .  S
O227       Cr241   2.030       .  S
O228       Cr241   1.944   1_565  S
O228        C229   1.252       .  A
C229        C853   1.437       .  S
O230       Cr239   1.970   1_545  S
O230        C238   1.252   1_545  A
O231       Cr239   2.003   1_545  S
O231        C232   1.266       .  A
C232        O233   1.264       .  A
C232       C1186   1.487       .  S
O233       Cr240   1.980       .  S
O234       Cr240   2.053       .  S
O234        C235   1.276       .  A
C235        O236   1.251       .  A
C235       C1397   1.472       .  S
O236       Cr241   1.945       .  S
O237       Cr241   2.029   1_565  S
O237        C238   1.267       .  A
C238       C1125   1.476       .  S
Cr239       O242   1.759   1_565  S
Cr240       O242   1.772       .  S
Cr241       O242   1.756       .  S
O243       Cr261   1.969       .  S
O243        C251   1.263       .  A
O244       Cr261   1.968       .  S
O244        C245   1.247       .  A
C245        O246   1.271       .  A
C245       C1093   1.499       .  S
O246       Cr262   2.058       .  S
O247       Cr262   2.037       .  S
O247        C248   1.273       .  A
C248        O249   1.261       .  A
C248       C1589   1.511       .  S
O249       Cr263   1.979       .  S
O250       Cr263   1.978       .  S
O250        C251   1.267       .  A
C251        C850   1.469       .  S
O252       Cr261   1.985       .  S
O252        C260   1.253       .  A
O253       Cr261   1.956       .  S
O253        C254   1.263       .  A
C254        O255   1.280       .  A
C254       C1269   1.481       .  S
O255       Cr262   2.040       .  S
O256       Cr262   2.014       .  S
O256        C257   1.267       .  A
C257        O258   1.258       .  A
C257       C1573   1.473       .  S
O258       Cr263   1.966       .  S
O259       Cr263   2.009       .  S
O259        C260   1.262       .  A
C260        C981   1.487       .  S
Cr261       O264   1.764       .  S
Cr262       O264   1.769       .  S
Cr263       O264   1.763       .  S
O265       Cr283   1.989       .  S
O265        C273   1.266       .  A
O266       Cr283   1.956       .  S
O266        C267   1.250       .  A
C267        O268   1.281       .  A
C267       C1013   1.500       .  S
O268       Cr284   2.081       .  S
O269       Cr284   2.021       .  S
O269        C270   1.270       .  A
C270        O271   1.269       .  A
C270        C805   1.520       .  S
O271       Cr285   2.022       .  S
O272       Cr285   1.954       .  S
O272        C273   1.253       .  A
C273        C837   1.442       .  S
O274       Cr283   1.978       .  S
O274        C282   1.258       .  A
O275       Cr283   2.018       .  S
O275        C276   1.269       .  A
C276        O277   1.260       .  A
C276        C965   1.502       .  S
O277       Cr284   1.980       .  S
O278       Cr284   2.072       .  S
O278        C279   1.282       .  A
C279        O280   1.253       .  A
C279        C818   1.493       .  S
O280       Cr285   1.940       .  S
O281       Cr285   2.023       .  S
O281        C282   1.267       .  A
C282       C1285   1.477   1_556  S
Cr283       O286   1.766       .  S
Cr284       O286   1.770       .  S
Cr285       O286   1.764       .  S
O287       Cr305   1.965       .  S
O287        C295   1.260       .  A
O288       Cr305   1.976       .  S
O288        C289   1.253       .  A
C289        O290   1.271       .  A
C289       C1253   1.492   1_556  S
O290       Cr306   2.042       .  S
O291       Cr306   2.043       .  S
O291        C292   1.273       .  A
C292        O293   1.260       .  A
C292        C770   1.518       .  S
O293       Cr307   1.981       .  S
O294       Cr307   1.980       .  S
O294        C295   1.264       .  A
C295        C834   1.469       .  S
O296       Cr305   1.998       .  S
O296        C304   1.259       .  A
O297       Cr305   1.966       .  S
O297        C298   1.264       .  A
C298        O299   1.276       .  A
C298        C882   1.485   1_556  S
O299       Cr306   2.034       .  S
O300       Cr306   2.004       .  S
O300        C301   1.265       .  A
C301        O302   1.259       .  A
C301        C786   1.467       .  S
O302       Cr307   1.973       .  S
O303       Cr307   2.000       .  S
O303        C304   1.262       .  A
C304       C1045   1.502       .  S
Cr305       O308   1.765       .  S
Cr306       O308   1.769       .  S
Cr307       O308   1.766       .  S
O309       Cr327   1.997   1_556  S
O309        C317   1.267       .  A
O310       Cr327   1.957   1_556  S
O310        C311   1.250   1_556  A
C311        O312   1.276       .  A
C311        C738   1.495   1_554  S
O312       Cr328   2.071       .  S
O313       Cr328   2.012       .  S
O313        C314   1.271       .  A
C314        O315   1.270       .  A
C314       C1154   1.508       .  S
O315       Cr329   2.021       .  S
O316       Cr329   1.931   1_556  S
O316        C317   1.246       .  A
C317        C754   1.432       .  S
O318       Cr327   1.980       .  S
O318        C326   1.257       .  A
O319       Cr327   2.019       .  S
O319        C320   1.271       .  A
C320        O321   1.263       .  A
C320       C1538   1.491       .  S
O321       Cr328   1.964       .  S
O322       Cr328   2.061       .  S
O322        C323   1.277       .  A
C323        O324   1.252       .  A
C323       C1317   1.482       .  S
O324       Cr329   1.945       .  S
O325       Cr329   2.032       .  S
O325        C326   1.268       .  A
C326        C821   1.487   1_554  S
Cr327       O330   1.762       .  S
Cr328       O330   1.772       .  S
Cr329       O330   1.752       .  S
O331       Cr349   1.975       .  S
O331        C339   1.259       .  A
O332       Cr349   1.973       .  S
O332        C333   1.253       .  A
C333        O334   1.281       .  A
C333        C802   1.505       .  S
O334       Cr350   2.069       .  S
O335       Cr350   2.049       .  S
O335        C336   1.277       .  A
C336        O337   1.263       .  A
C336       C1330   1.506       .  S
O337       Cr351   1.987       .  S
O338       Cr351   1.953       .  S
O338        C339   1.260       .  A
C339        C757   1.455       .  S
O340       Cr349   1.998       .  S
O340        C348   1.261       .  A
O341       Cr349   1.974       .  S
O341        C342   1.263       .  A
C342        O343   1.273       .  A
C342       C1618   1.483       .  S
O343       Cr350   2.024       .  S
O344       Cr350   2.062       .  S
O344        C345   1.275       .  A
C345        O346   1.244       .  A
C345       C1493   1.508       .  S
O346       Cr351   1.955       .  S
O347       Cr351   1.998       .  S
O347        C348   1.265       .  A
C348        C725   1.484       .  S
Cr349       O352   1.763       .  S
Cr350       O352   1.752       .  S
Cr351       O352   1.759       .  S
O353       Cr371   2.007       .  S
O353        C361   1.270       .  A
O354       Cr371   1.947       .  S
O354        C355   1.250       .  A
C355        O356   1.276       .  A
C355        C677   1.488   1_455  S
O356       Cr372   2.065       .  S
O357       Cr372   2.021       .  S
O357        C358   1.271       .  A
C358        O359   1.268       .  A
C358        C741   1.513       .  S
O359       Cr373   2.014       .  S
O360       Cr373   1.936       .  S
O360        C361   1.251       .  A
C361        C709   1.442       .  S
O362       Cr371   1.979       .  S
O362        C370   1.252       .  A
O363       Cr371   2.003       .  S
O363        C364   1.267       .  A
C364        O365   1.262       .  A
C364        C690   1.475   1_455  S
O365       Cr372   1.977       .  S
O366       Cr372   2.057       .  S
O366        C367   1.278       .  A
C367        O368   1.255       .  A
C367        C722   1.487       .  S
O368       Cr373   1.942       .  S
O369       Cr373   2.020       .  S
O369        C370   1.264       .  A
C370       C1461   1.478       .  S
Cr371       O374   1.762       .  S
Cr372       O374   1.775       .  S
Cr373       O374   1.756       .  S
O375       Cr393   1.991   1_545  S
O375        C383   1.267       .  A
O376       Cr393   1.956       .  S
O376        C377   1.251       .  A
C377        O378   1.277       .  A
C377       C1426   1.496       .  S
O378       Cr394   2.072       .  S
O379       Cr394   2.003       .  S
O379        C380   1.269       .  A
C380        O381   1.273       .  A
C380        C933   1.503       .  S
O381       Cr395   2.028       .  S
O382       Cr395   1.946   1_545  S
O382        C383   1.252       .  A
C383        C706   1.437       .  S
O384       Cr393   1.979       .  S
O384        C392   1.255       .  A
O385       Cr393   2.008       .  S
O385        C386   1.267       .  A
C386        O387   1.263       .  A
C386        C642   1.484       .  S
O387       Cr394   1.975       .  S
O388       Cr394   2.059       .  S
O388        C389   1.277       .  A
C389        O390   1.250       .  A
C389        C917   1.475       .  S
O390       Cr395   1.948       .  S
O391       Cr395   2.019       .  S
O391        C392   1.265       .  A
C392        C661   1.478   1_465  S
Cr393       O396   1.757       .  S
Cr394       O396   1.773       .  S
Cr395       O396   1.761       .  S
O397       Cr415   2.008       .  S
O397        C405   1.271       .  A
O398       Cr415   1.956       .  S
O398        C399   1.251       .  A
C399        O400   1.276       .  A
C399       C1605   1.497   1_655  S
O400       Cr416   2.070       .  S
O401       Cr416   2.017       .  S
O401        C402   1.272       .  A
C402        O403   1.268       .  A
C402       C1074   1.509       .  S
O403       Cr417   2.015       .  S
O404       Cr417   1.934       .  S
O404        C405   1.249       .  A
C405        C626   1.436       .  S
O406       Cr415   1.972       .  S
O406        C414   1.252       .  A
O407       Cr415   2.018       .  S
O407        C408   1.270       .  A
C408        O409   1.263       .  A
C408        C645   1.491   1_655  S
O409       Cr416   1.959       .  S
O410       Cr416   2.066       .  S
O410        C411   1.279       .  A
C411        O412   1.252       .  A
C411       C1061   1.486       .  S
O412       Cr417   1.943       .  S
O413       Cr417   2.017       .  S
O413        C414   1.264       .  A
C414        C789   1.473       .  S
Cr415       O418   1.759       .  S
Cr416       O418   1.768       .  S
Cr417       O418   1.755       .  S
O419       Cr437   1.989       .  S
O419        C427   1.267       .  A
O420       Cr437   1.941       .  S
O420        C421   1.246       .  A
C421        O422   1.279       .  A
C421        C773   1.489       .  S
O422       Cr438   2.075       .  S
O423       Cr438   2.013       .  S
O423        C424   1.269       .  A
C424        O425   1.267       .  A
C424        C594   1.504       .  S
O425       Cr439   2.010       .  S
O426       Cr439   1.945       .  S
O426        C427   1.252       .  A
C427        C629   1.442       .  S
O428       Cr437   1.975       .  S
O428        C436   1.254       .  A
O429       Cr437   2.006       .  S
O429        C430   1.267       .  A
C430        O431   1.259       .  A
C430        C693   1.490       .  S
O431       Cr438   1.975       .  S
O432       Cr438   2.053       .  S
O432        C433   1.279       .  A
C433        O434   1.258       .  A
C433        C610   1.478       .  S
O434       Cr439   1.945       .  S
O435       Cr439   2.024       .  S
O435        C436   1.267       .  A
C436       C1637   1.476   1_655  S
Cr437       O440   1.757       .  S
Cr438       O440   1.766       .  S
Cr439       O440   1.760       .  S
O441       Cr459   1.993   1_655  S
O441        C449   1.267       .  A
O442       Cr459   1.949   1_655  S
O442        C443   1.251   1_655  A
C443        O444   1.275       .  A
C443        C562   1.491       .  S
O444       Cr460   2.065       .  S
O445       Cr460   2.010       .  S
O445        C446   1.269       .  A
C446        O447   1.266       .  A
C446       C1509   1.496       .  S
O447       Cr461   2.001       .  S
O448       Cr461   1.942   1_655  S
O448        C449   1.251       .  A
C449        C578   1.435       .  S
O450       Cr459   1.974       .  S
O450        C458   1.253   1_455  A
O451       Cr459   2.003       .  S
O451        C452   1.266       .  A
C452        O453   1.259       .  A
C452       C1442   1.476       .  S
O453       Cr460   1.959       .  S
O454       Cr460   2.057       .  S
O454        C455   1.277       .  A
C455        O456   1.254       .  A
C455       C1666   1.480       .  S
O456       Cr461   1.946       .  S
O457       Cr461   2.012   1_655  S
O457        C458   1.263       .  A
C458        C613   1.470       .  S
Cr459       O462   1.760       .  S
Cr460       O462   1.772       .  S
Cr461       O462   1.757       .  S
O463       Cr481   2.000       .  S
O463        C471   1.269       .  A
O464       Cr481   1.953       .  S
O464        C465   1.249       .  A
C465        O466   1.276       .  A
C465        C597   1.491       .  S
O466       Cr482   2.069       .  S
O467       Cr482   2.015       .  S
O467        C468   1.270       .  A
C468        O469   1.269       .  A
C468       C1234   1.504       .  S
O469       Cr483   2.014       .  S
O470       Cr483   1.937       .  S
O470        C471   1.250       .  A
C471        C581   1.439       .  S
O472       Cr481   1.982       .  S
O472        C480   1.256       .  A
O473       Cr481   2.019       .  S
O473        C474   1.269       .  A
C474        O475   1.263       .  A
C474       C1365   1.486       .  S
O475       Cr482   1.977       .  S
O476       Cr482   2.054       .  S
O476        C477   1.278       .  A
C477        O478   1.254       .  A
C477       C1221   1.477       .  S
O478       Cr483   1.947       .  S
O479       Cr483   2.017       .  S
O479        C480   1.264       .  A
C480        C549   1.476       .  S
Cr481       O484   1.761       .  S
Cr482       O484   1.769       .  S
Cr483       O484   1.759       .  S
O485       Cr503   1.997       .  S
O485        C493   1.270       .  A
O486       Cr503   1.941       .  S
O486        C487   1.248       .  A
C487        O488   1.275       .  A
C487        C869   1.486   1_545  S
O488       Cr504   2.059       .  S
O489       Cr504   2.025       .  S
O489        C490   1.267       .  A
C490        O491   1.259       .  A
C490        C565   1.503       .  S
O491       Cr505   1.997       .  S
O492       Cr505   1.943       .  S
O492        C493   1.255       .  A
C493        C530   1.445       .  S
O494       Cr503   1.987       .  S
O494        C502   1.256       .  A
O495       Cr503   2.001       .  S
O495        C496   1.268       .  A
C496        O497   1.261       .  A
C496       C1109   1.492   1_545  S
O497       Cr504   1.972       .  S
O498       Cr504   2.061       .  S
O498        C499   1.283       .  A
C499        O500   1.258       .  A
C499        C546   1.480       .  S
O500       Cr505   1.948       .  S
O501       Cr505   2.011       .  S
O501        C502   1.261       .  A
C502       C1205   1.481       .  S
Cr503       O506   1.761       .  S
Cr504       O506   1.771       .  S
Cr505       O506   1.761       .  S
O507       Cr525   1.992   1_554  S
O507        C515   1.267       .  A
O508       Cr525   1.949   1_554  S
O508        C509   1.251   1_554  A
C509        O510   1.279       .  A
C509       C1173   1.495       .  S
O510       Cr526   2.075       .  S
O511       Cr526   2.010       .  S
O511        C512   1.268       .  A
C512        O513   1.265       .  A
C512        C674   1.497       .  S
O513       Cr527   2.005       .  S
O514       Cr527   1.946   1_554  S
O514        C515   1.251       .  A
C515        C533   1.435       .  S
O516       Cr525   1.973       .  S
O516        C524   1.254   1_556  A
O517       Cr525   1.999       .  S
O517        C518   1.264       .  A
C518        O519   1.259       .  A
C518       C1029   1.478       .  S
O519       Cr526   1.964       .  S
O520       Cr526   2.064       .  S
O520        C521   1.280       .  A
C521        O522   1.253       .  A
C521        C658   1.479       .  S
O522       Cr527   1.941       .  S
O523       Cr527   2.018   1_554  S
O523        C524   1.264       .  A
C524        C901   1.470   1_545  S
Cr525       O528   1.760       .  S
Cr526       O528   1.769       .  S
Cr527       O528   1.757       .  S
C529        C530   1.404       .  A
C529        C534   1.394       .  A
C529        H536   1.085       .  S
C530        C531   1.408       .  A
C531        C532   1.387       .  A
C531        C538   1.509       .  S
C532        C533   1.397       .  A
C532        H537   1.085       .  S
C533        C534   1.401       .  A
C534        C535   1.506       .  S
C535        H539   1.111       .  S
C535        H540   1.111       .  S
C535        H541   1.110       .  S
C538        H542   1.108       .  S
C538        H543   1.110       .  S
C538        H544   1.111       .  S
C545        C546   1.403       .  A
C545        C550   1.406       .  A
C545        H552   1.084       .  S
C546        C547   1.419       .  A
C547        C548   1.406       .  A
C547        C554   1.509       .  S
C548        C549   1.399       .  A
C548        H553   1.084       .  S
C549        C550   1.413       .  A
C550        C551   1.507       .  S
C551        H555   1.110       .  S
C551        H556   1.111       .  S
C551        H557   1.109       .  S
C554        H558   1.109       .  S
C554        H559   1.109       .  S
C554        H560   1.111       .  S
C561        C562   1.400   1_655  A
C561        C566   1.406       .  A
C561        H568   1.085       .  S
C562        C563   1.417       .  A
C563        C564   1.417   1_455  A
C563        C570   1.502       .  S
C564        C565   1.407       .  A
C564        H569   1.084       .  S
C565        C566   1.425       .  A
C566        C567   1.510       .  S
C567        H571   1.111       .  S
C567        H572   1.108       .  S
C567        H573   1.109       .  S
C570        H574   1.102       .  S
C570        H575   1.110       .  S
C570        H576   1.111       .  S
C577        C578   1.397       .  A
C577        C582   1.388       .  A
C577        H584   1.086       .  S
C578        C579   1.403       .  A
C579        C580   1.392       .  A
C579        C586   1.507       .  S
C580        C581   1.400       .  A
C580        H585   1.085       .  S
C581        C582   1.405       .  A
C582        C583   1.504       .  S
C583        H587   1.110       .  S
C583        H588   1.111       .  S
C583        H589   1.107       .  S
C586        H590   1.110       .  S
C586        H591   1.110       .  S
C586        H592   1.111       .  S
C593        C594   1.412       .  A
C593        C598   1.411       .  A
C593        H600   1.084       .  S
C594        C595   1.417       .  A
C595        C596   1.414       .  A
C595        C602   1.506       .  S
C596        C597   1.405       .  A
C596        H601   1.073       .  S
C597        C598   1.413       .  A
C598        C599   1.505       .  S
C599        H603   1.110       .  S
C599        H604   1.110       .  S
C599        H605   1.108       .  S
C602        H606   1.110       .  S
C602        H607   1.110       .  S
C602        H608   1.110       .  S
C609        C610   1.408       .  A
C609        C614   1.402       .  A
C609        H616   1.085       .  S
C610        C611   1.414       .  A
C611        C612   1.406       .  A
C611        C618   1.507       .  S
C612        C613   1.403       .  A
C612        H617   1.085       .  S
C613        C614   1.406       .  A
C614        C615   1.506   1_655  S
C615        H619   1.111       .  S
C615        H620   1.110       .  S
C615        H621   1.110       .  S
C618        H622   1.110       .  S
C618        H623   1.110       .  S
C618        H624   1.111       .  S
C625        C626   1.397       .  A
C625        C630   1.393       .  A
C625        H632   1.085       .  S
C626        C627   1.406       .  A
C627        C628   1.387       .  A
C627        C634   1.507       .  S
C628        C629   1.398       .  A
C628        H633   1.085       .  S
C629        C630   1.409       .  A
C630        C631   1.507       .  S
C631        H635   1.111       .  S
C631        H636   1.110       .  S
C631        H637   1.110       .  S
C634        H638   1.108       .  S
C634        H639   1.110       .  S
C634        H640   1.111       .  S
C641        C642   1.406       .  A
C641        C646   1.407       .  A
C641        H648   1.084       .  S
C642        C643   1.415       .  A
C643        C644   1.397       .  A
C643        C650   1.509       .  S
C644        C645   1.407       .  A
C644        H649   1.083   1_455  S
C645        C646   1.420       .  A
C646        C647   1.508       .  S
C647        H651   1.111       .  S
C647        H652   1.111       .  S
C647        H653   1.110       .  S
C650        H654   1.110       .  S
C650        H655   1.108       .  S
C650        H656   1.111   1_455  S
C657        C658   1.410       .  A
C657        C662   1.407   1_545  A
C657        H664   1.085       .  S
C658        C659   1.413       .  A
C659        C660   1.406       .  A
C659        C666   1.507       .  S
C660        C661   1.405       .  A
C660        H665   1.085   1_655  S
C661        C662   1.407   1_545  A
C662        C663   1.505       .  S
C663        H667   1.111       .  S
C663        H668   1.110       .  S
C663        H669   1.111       .  S
C666        H670   1.109       .  S
C666        H671   1.110       .  S
C666        H672   1.111       .  S
C673        C674   1.403       .  A
C673        C678   1.410       .  A
C673        H680   1.084       .  S
C674        C675   1.421       .  A
C675        C676   1.410       .  A
C675        C682   1.508   1_556  S
C676        C677   1.402       .  A
C676        H681   1.084   1_655  S
C677        C678   1.420       .  A
C678        C679   1.503       .  S
C679        H683   1.110       .  S
C679        H684   1.111       .  S
C679        H685   1.105       .  S
C682        H686   1.108   1_554  S
C682        H687   1.110       .  S
C682        H688   1.111       .  S
C689        C690   1.401       .  A
C689        C694   1.405       .  A
C689        H696   1.085   1_655  S
C690        C691   1.410       .  A
C691        C692   1.403       .  A
C691        C698   1.507       .  S
C692        C693   1.408       .  A
C692        H697   1.084       .  S
C693        C694   1.422       .  A
C694        C695   1.509       .  S
C695        H699   1.111       .  S
C695        H700   1.111       .  S
C695        H701   1.110       .  S
C698        H702   1.109   1_655  S
C698        H703   1.109       .  S
C698        H704   1.111       .  S
C705        C706   1.394       .  A
C705        C710   1.390       .  A
C705        H712   1.085       .  S
C706        C707   1.409       .  A
C707        C708   1.393       .  A
C707        C714   1.507       .  S
C708        C709   1.396       .  A
C708        H713   1.085       .  S
C709        C710   1.411       .  A
C710        C711   1.508       .  S
C711        H715   1.111       .  S
C711        H716   1.110       .  S
C711        H717   1.109       .  S
C714        H718   1.110       .  S
C714        H719   1.107       .  S
C714        H720   1.111       .  S
C721        C722   1.409       .  A
C721        C726   1.401       .  A
C721        H728   1.085       .  S
C722        C723   1.416       .  A
C723        C724   1.408       .  A
C723        C730   1.507       .  S
C724        C725   1.408       .  A
C724        H729   1.084       .  S
C725        C726   1.411       .  A
C726        C727   1.506       .  S
C727        H731   1.111       .  S
C727        H732   1.108       .  S
C727        H733   1.108       .  S
C730        H734   1.109       .  S
C730        H735   1.110       .  S
C730        H736   1.111       .  S
C737        C738   1.409   1_554  A
C737        C742   1.420   1_554  A
C737        H744   1.084       .  S
C738        C739   1.412       .  A
C739        C740   1.410       .  A
C739        C746   1.508       .  S
C740        C741   1.412       .  A
C740        H745   1.084       .  S
C741        C742   1.421       .  A
C742        C743   1.505       .  S
C743        H747   1.111   1_556  S
C743        H748   1.110       .  S
C743        H749   1.110       .  S
C746        H750   1.110       .  S
C746        H751   1.110       .  S
C746        H752   1.111       .  S
C753        C754   1.397       .  A
C753        C758   1.387       .  A
C753        H760   1.084       .  S
C754        C755   1.400       .  A
C755        C756   1.390       .  A
C755        C762   1.506       .  S
C756        C757   1.408       .  A
C756        H761   1.085       .  S
C757        C758   1.405       .  A
C758        C759   1.500       .  S
C759        H763   1.110       .  S
C759        H764   1.108       .  S
C759        H765   1.103       .  S
C762        H766   1.110       .  S
C762        H767   1.107       .  S
C762        H768   1.111       .  S
C769        C770   1.414       .  A
C769        C774   1.410       .  A
C769        H776   1.084       .  S
C770        C771   1.423       .  A
C771        C772   1.418       .  A
C771        C778   1.506       .  S
C772        C773   1.408       .  A
C772        H777   1.085       .  S
C773        C774   1.412       .  A
C774        C775   1.507       .  S
C775        H779   1.110       .  S
C775        H780   1.110       .  S
C775        H781   1.111       .  S
C778        H782   1.110       .  S
C778        H783   1.110       .  S
C778        H784   1.111       .  S
C785        C786   1.405       .  A
C785        C790   1.406       .  A
C785        H792   1.084       .  S
C786        C787   1.410       .  A
C787        C788   1.402       .  A
C787        C794   1.508       .  S
C788        C789   1.403       .  A
C788        H793   1.085       .  S
C789        C790   1.408       .  A
C790        C791   1.502       .  S
C791        H795   1.111       .  S
C791        H796   1.108       .  S
C791        H797   1.110       .  S
C794        H798   1.110       .  S
C794        H799   1.110       .  S
C794        H800   1.111       .  S
C801        C802   1.413       .  A
C801        C806   1.416       .  A
C801        H808   1.084       .  S
C802        C803   1.413       .  A
C803        C804   1.421       .  A
C803        C810   1.506       .  S
C804        C805   1.415       .  A
C804        H809   1.084       .  S
C805        C806   1.418       .  A
C806        C807   1.506       .  S
C807        H811   1.111       .  S
C807        H812   1.110       .  S
C807        H813   1.110       .  S
C810        H814   1.110       .  S
C810        H815   1.109       .  S
C810        H816   1.111       .  S
C817        C818   1.412       .  A
C817        C822   1.407       .  A
C817        H824   1.083       .  S
C818        C819   1.411       .  A
C819        C820   1.415       .  A
C819        C826   1.505       .  S
C820        C821   1.411       .  A
C820        H825   1.084       .  S
C821        C822   1.405       .  A
C822        C823   1.505   1_556  S
C823        H827   1.110       .  S
C823        H828   1.110       .  S
C823        H829   1.111       .  S
C826        H830   1.110       .  S
C826        H831   1.108       .  S
C826        H832   1.111       .  S
C833        C834   1.413       .  A
C833        C838   1.396       .  A
C833        H840   1.084       .  S
C834        C835   1.416       .  A
C835        C836   1.389       .  A
C835        C842   1.508       .  S
C836        C837   1.396       .  A
C836        H841   1.085       .  S
C837        C838   1.398       .  A
C838        C839   1.506       .  S
C839        H843   1.111       .  S
C839        H844   1.111       .  S
C839        H845   1.111       .  S
C842        H846   1.110       .  S
C842        H847   1.105       .  S
C842        H848   1.110       .  S
C849        C850   1.412       .  A
C849        C854   1.392       .  A
C849        H856   1.084       .  S
C850        C851   1.416       .  A
C851        C852   1.392       .  A
C851        C858   1.506       .  S
C852        C853   1.396       .  A
C852        H857   1.085       .  S
C853        C854   1.397       .  A
C854        C855   1.507       .  S
C855        H859   1.111       .  S
C855        H860   1.111       .  S
C855        H861   1.110       .  S
C858        H862   1.108       .  S
C858        H863   1.104       .  S
C858        H864   1.111       .  S
C865        C866   1.407       .  A
C865        C870   1.413       .  A
C865        H872   1.084       .  S
C866        C867   1.425       .  A
C867        C868   1.410       .  A
C867        C874   1.508   1_655  S
C868        C869   1.401       .  A
C868        H873   1.084   1_565  S
C869        C870   1.418       .  A
C870        C871   1.505       .  S
C871        H875   1.110       .  S
C871        H876   1.110       .  S
C871        H877   1.109       .  S
C874        H878   1.109   1_455  S
C874        H879   1.110       .  S
C874        H880   1.111       .  S
C881        C882   1.404       .  A
C881        C886   1.408       .  A
C881        H888   1.084   1_554  S
C882        C883   1.416       .  A
C883        C884   1.402       .  A
C883        C890   1.510       .  S
C884        C885   1.408       .  A
C884        H889   1.084       .  S
C885        C886   1.420       .  A
C886        C887   1.507       .  S
C887        H891   1.111       .  S
C887        H892   1.110       .  S
C887        H893   1.110       .  S
C890        H894   1.111       .  S
C890        H895   1.109       .  S
C890        H896   1.111       .  S
C897        C898   1.411       .  A
C897        C902   1.402       .  A
C897        H904   1.085       .  S
C898        C899   1.415       .  A
C899        C900   1.408       .  A
C899        C906   1.506       .  S
C900        C901   1.404       .  A
C900        H905   1.085   1_565  S
C901        C902   1.405       .  A
C902        C903   1.508   1_554  S
C903        H907   1.111       .  S
C903        H908   1.111       .  S
C903        H909   1.110       .  S
C906        H910   1.110       .  S
C906        H911   1.110       .  S
C906        H912   1.111       .  S
C913        C914   1.403   1_556  A
C913        C918   1.408       .  A
C913        H920   1.084   1_455  S
C914        C915   1.419   1_554  A
C915        C916   1.403       .  A
C915        C922   1.504   1_556  S
C916        C917   1.400       .  A
C916        H921   1.085       .  S
C917        C918   1.416       .  A
C918        C919   1.507       .  S
C919        H923   1.111   1_455  S
C919        H924   1.110       .  S
C919        H925   1.109       .  S
C922        H926   1.110       .  S
C922        H927   1.101       .  S
C922        H928   1.109       .  S
C929        C930   1.408       .  A
C929        C934   1.415       .  A
C929        H936   1.084       .  S
C930        C931   1.414       .  A
C931        C932   1.413       .  A
C931        C938   1.505   1_556  S
C932        C933   1.408       .  A
C932        H937   1.084       .  S
C933        C934   1.417       .  A
C934        C935   1.506       .  S
C935        H939   1.111       .  S
C935        H940   1.110       .  S
C935        H941   1.111       .  S
C938        H942   1.110       .  S
C938        H943   1.108       .  S
C938        H944   1.111   1_565  S
C945        C946   1.409       .  A
C945        C950   1.421   1_565  A
C945        H952   1.084       .  S
C946        C947   1.429       .  A
C947        C948   1.409       .  A
C947        C954   1.510       .  S
C948        C949   1.399       .  A
C948        H953   1.085       .  S
C949        C950   1.423   1_565  A
C950        C951   1.505       .  S
C951        H955   1.110       .  S
C951        H956   1.110       .  S
C951        H957   1.106       .  S
C954        H958   1.108       .  S
C954        H959   1.108       .  S
C954        H960   1.111       .  S
C961        C962   1.403       .  A
C961        C966   1.408       .  A
C961        H968   1.084       .  S
C962        C963   1.414       .  A
C963        C964   1.409       .  A
C963        C970   1.507       .  S
C964        C965   1.410       .  A
C964        H969   1.084       .  S
C965        C966   1.424       .  A
C966        C967   1.510       .  S
C967        H971   1.111       .  S
C967        H972   1.111       .  S
C967        H973   1.110       .  S
C970        H974   1.109   1_556  S
C970        H975   1.111       .  S
C970        H976   1.111       .  S
C977        C978   1.410       .  A
C977        C982   1.404       .  A
C977        H984   1.085       .  S
C978        C979   1.413       .  A
C979        C980   1.407       .  A
C979        C986   1.506       .  S
C980        C981   1.409       .  A
C980        H985   1.084       .  S
C981        C982   1.410       .  A
C982        C983   1.505       .  S
C983        H987   1.111       .  S
C983        H988   1.109       .  S
C983        H989   1.110       .  S
C986        H990   1.107       .  S
C986        H991   1.110       .  S
C986        H992   1.111       .  S
C993        C994   1.398       .  A
C993        C998   1.388       .  A
C993       H1000   1.085       .  S
C994        C995   1.402       .  A
C995        C996   1.389       .  A
C995       C1002   1.505       .  S
C996        C997   1.399       .  A
C996       H1001   1.085       .  S
C997        C998   1.402       .  A
C998        C999   1.504       .  S
C999       H1003   1.111       .  S
C999       H1004   1.110       .  S
C999       H1005   1.110       .  S
C1002      H1006   1.109       .  S
C1002      H1007   1.109       .  S
C1002      H1008   1.111       .  S
C1009      C1010   1.414       .  A
C1009      C1014   1.416       .  A
C1009      H1016   1.084       .  S
C1010      C1011   1.425       .  A
C1011      C1012   1.418       .  A
C1011      C1018   1.507       .  S
C1012      C1013   1.407       .  A
C1012      H1017   1.084       .  S
C1013      C1014   1.415       .  A
C1014      C1015   1.506       .  S
C1015      H1019   1.111       .  S
C1015      H1020   1.110       .  S
C1015      H1021   1.110       .  S
C1018      H1022   1.110       .  S
C1018      H1023   1.109       .  S
C1018      H1024   1.111       .  S
C1025      C1026   1.400       .  A
C1025      C1030   1.400   1_565  A
C1025      H1032   1.084       .  S
C1026      C1027   1.415   1_565  A
C1027      C1028   1.398       .  A
C1027      C1034   1.510       .  S
C1028      C1029   1.404       .  A
C1028      H1033   1.084       .  S
C1029      C1030   1.418       .  A
C1030      C1031   1.508       .  S
C1031      H1035   1.111   1_545  S
C1031      H1036   1.109       .  S
C1031      H1037   1.109   1_545  S
C1034      H1038   1.111       .  S
C1034      H1039   1.110       .  S
C1034      H1040   1.111       .  S
C1041      C1042   1.406       .  A
C1041      C1046   1.404       .  A
C1041      H1048   1.085       .  S
C1042      C1043   1.405       .  A
C1043      C1044   1.411       .  A
C1043      C1050   1.505       .  S
C1044      C1045   1.418       .  A
C1044      H1049   1.083       .  S
C1045      C1046   1.418       .  A
C1046      C1047   1.507       .  S
C1047      H1051   1.111       .  S
C1047      H1052   1.110       .  S
C1047      H1053   1.109       .  S
C1050      H1054   1.110       .  S
C1050      H1055   1.110       .  S
C1050      H1056   1.111       .  S
C1057      C1058   1.402       .  A
C1057      C1062   1.404       .  A
C1057      H1064   1.084       .  S
C1058      C1059   1.419       .  A
C1059      C1060   1.410       .  A
C1059      C1066   1.506       .  S
C1060      C1061   1.404       .  A
C1060      H1065   1.084       .  S
C1061      C1062   1.418       .  A
C1062      C1063   1.509       .  S
C1063      H1067   1.111       .  S
C1063      H1068   1.110       .  S
C1063      H1069   1.103       .  S
C1066      H1070   1.111       .  S
C1066      H1071   1.110       .  S
C1066      H1072   1.111       .  S
C1073      C1074   1.410       .  A
C1073      C1078   1.418       .  A
C1073      H1080   1.083       .  S
C1074      C1075   1.426       .  A
C1075      C1076   1.407       .  A
C1075      C1082   1.510       .  S
C1076      C1077   1.402       .  A
C1076      H1081   1.085       .  S
C1077      C1078   1.417       .  A
C1078      C1079   1.505       .  S
C1079      H1083   1.111       .  S
C1079      H1084   1.108       .  S
C1079      H1085   1.110       .  S
C1082      H1086   1.109       .  S
C1082      H1087   1.110       .  S
C1082      H1088   1.111       .  S
C1089      C1090   1.415       .  A
C1089      C1094   1.419       .  A
C1089      H1096   1.084       .  S
C1090      C1091   1.416       .  A
C1091      C1092   1.410       .  A
C1091      C1098   1.507       .  S
C1092      C1093   1.411       .  A
C1092      H1097   1.085       .  S
C1093      C1094   1.411       .  A
C1094      C1095   1.505       .  S
C1095      H1099   1.111       .  S
C1095      H1100   1.110       .  S
C1095      H1101   1.110       .  S
C1098      H1102   1.110       .  S
C1098      H1103   1.111       .  S
C1098      H1104   1.111       .  S
C1105      C1106   1.402       .  A
C1105      C1110   1.403       .  A
C1105      H1112   1.084       .  S
C1106      C1107   1.413       .  A
C1107      C1108   1.404       .  A
C1107      C1114   1.508       .  S
C1108      C1109   1.409       .  A
C1108      H1113   1.083       .  S
C1109      C1110   1.422       .  A
C1110      C1111   1.509   1_565  S
C1111      H1115   1.109       .  S
C1111      H1116   1.110       .  S
C1111      H1117   1.111       .  S
C1114      H1118   1.109       .  S
C1114      H1119   1.111       .  S
C1114      H1120   1.111       .  S
C1121      C1122   1.412       .  A
C1121      C1126   1.405       .  A
C1121      H1128   1.085       .  S
C1122      C1123   1.408       .  A
C1123      C1124   1.407       .  A
C1123      C1130   1.505       .  S
C1124      C1125   1.406       .  A
C1124      H1129   1.084       .  S
C1125      C1126   1.408       .  A
C1126      C1127   1.507   1_565  S
C1127      H1131   1.110       .  S
C1127      H1132   1.108       .  S
C1127      H1133   1.109       .  S
C1130      H1134   1.109       .  S
C1130      H1135   1.110       .  S
C1130      H1136   1.110       .  S
C1137      C1138   1.401       .  A
C1137      C1142   1.388       .  A
C1137      H1144   1.085       .  S
C1138      C1139   1.400       .  A
C1139      C1140   1.394       .  A
C1139      C1146   1.506       .  S
C1140      C1141   1.408       .  A
C1140      H1145   1.085       .  S
C1141      C1142   1.409       .  A
C1142      C1143   1.507       .  S
C1143      H1147   1.110   1_565  S
C1143      H1148   1.110       .  S
C1143      H1149   1.106       .  S
C1146      H1150   1.111       .  S
C1146      H1151   1.110       .  S
C1146      H1152   1.111       .  S
C1153      C1154   1.409       .  A
C1153      C1158   1.417       .  A
C1153      H1160   1.084       .  S
C1154      C1155   1.424       .  A
C1155      C1156   1.409       .  A
C1155      C1162   1.508       .  S
C1156      C1157   1.403       .  A
C1156      H1161   1.084       .  S
C1157      C1158   1.417       .  A
C1158      C1159   1.504       .  S
C1159      H1163   1.111       .  S
C1159      H1164   1.105       .  S
C1159      H1165   1.110       .  S
C1162      H1166   1.109       .  S
C1162      H1167   1.107   1_554  S
C1162      H1168   1.111   1_554  S
C1169      C1170   1.407       .  A
C1169      C1174   1.417   1_554  A
C1169      H1176   1.084       .  S
C1170      C1171   1.424       .  A
C1171      C1172   1.411       .  A
C1171      C1178   1.508       .  S
C1172      C1173   1.402   1_554  A
C1172      H1177   1.084       .  S
C1173      C1174   1.421       .  A
C1174      C1175   1.505       .  S
C1175      H1179   1.110       .  S
C1175      H1180   1.110       .  S
C1175      H1181   1.107       .  S
C1178      H1182   1.108       .  S
C1178      H1183   1.109       .  S
C1178      H1184   1.111       .  S
C1185      C1186   1.404       .  A
C1185      C1190   1.405       .  A
C1185      H1192   1.084       .  S
C1186      C1187   1.418       .  A
C1187      C1188   1.401       .  A
C1187      C1194   1.509       .  S
C1188      C1189   1.406       .  A
C1188      H1193   1.083       .  S
C1189      C1190   1.422       .  A
C1190      C1191   1.509       .  S
C1191      H1195   1.111       .  S
C1191      H1196   1.109       .  S
C1191      H1197   1.110       .  S
C1194      H1198   1.109       .  S
C1194      H1199   1.109       .  S
C1194      H1200   1.111       .  S
C1201      C1202   1.401       .  A
C1201      C1206   1.404       .  A
C1201      H1208   1.085       .  S
C1202      C1203   1.416       .  A
C1203      C1204   1.409       .  A
C1203      C1210   1.507       .  S
C1204      C1205   1.402       .  A
C1204      H1209   1.084       .  S
C1205      C1206   1.417       .  A
C1206      C1207   1.508       .  S
C1207      H1211   1.111       .  S
C1207      H1212   1.110       .  S
C1207      H1213   1.109       .  S
C1210      H1214   1.110       .  S
C1210      H1215   1.110       .  S
C1210      H1216   1.111       .  S
C1217      C1218   1.398       .  A
C1217      C1222   1.404       .  A
C1217      H1224   1.085       .  S
C1218      C1219   1.415       .  A
C1219      C1220   1.406       .  A
C1219      C1226   1.506       .  S
C1220      C1221   1.402       .  A
C1220      H1225   1.084       .  S
C1221      C1222   1.419       .  A
C1222      C1223   1.507       .  S
C1223      H1227   1.110       .  S
C1223      H1228   1.108       .  S
C1223      H1229   1.111       .  S
C1226      H1230   1.110       .  S
C1226      H1231   1.109       .  S
C1226      H1232   1.111       .  S
C1233      C1234   1.409       .  A
C1233      C1238   1.410       .  A
C1233      H1240   1.085       .  S
C1234      C1235   1.417       .  A
C1235      C1236   1.417       .  A
C1235      C1242   1.505       .  S
C1236      C1237   1.409       .  A
C1236      H1241   1.084       .  S
C1237      C1238   1.414       .  A
C1238      C1239   1.506       .  S
C1239      H1243   1.110       .  S
C1239      H1244   1.110       .  S
C1239      H1245   1.109       .  S
C1242      H1246   1.110       .  S
C1242      H1247   1.111       .  S
C1242      H1248   1.111       .  S
C1249      C1250   1.416       .  A
C1249      C1254   1.415       .  A
C1249      H1256   1.084       .  S
C1250      C1251   1.418       .  A
C1251      C1252   1.410       .  A
C1251      C1258   1.507       .  S
C1252      C1253   1.409       .  A
C1252      H1257   1.085       .  S
C1253      C1254   1.410       .  A
C1254      C1255   1.507   1_554  S
C1255      H1259   1.111       .  S
C1255      H1260   1.110       .  S
C1255      H1261   1.110       .  S
C1258      H1262   1.110       .  S
C1258      H1263   1.110       .  S
C1258      H1264   1.111       .  S
C1265      C1266   1.404       .  A
C1265      C1270   1.399       .  A
C1265      H1272   1.084       .  S
C1266      C1267   1.420       .  A
C1267      C1268   1.406       .  A
C1267      C1274   1.508       .  S
C1268      C1269   1.403       .  A
C1268      H1273   1.084       .  S
C1269      C1270   1.417       .  A
C1270      C1271   1.511       .  S
C1271      H1275   1.111       .  S
C1271      H1276   1.111       .  S
C1271      H1277   1.110       .  S
C1274      H1278   1.110       .  S
C1274      H1279   1.110       .  S
C1274      H1280   1.111       .  S
C1281      C1282   1.409       .  A
C1281      C1286   1.401       .  A
C1281      H1288   1.084       .  S
C1282      C1283   1.414       .  A
C1283      C1284   1.413       .  A
C1283      C1290   1.505       .  S
C1284      C1285   1.408       .  A
C1284      H1289   1.084   1_554  S
C1285      C1286   1.405       .  A
C1286      C1287   1.505       .  S
C1287      H1291   1.110       .  S
C1287      H1292   1.110       .  S
C1287      H1293   1.110       .  S
C1290      H1294   1.110       .  S
C1290      H1295   1.110       .  S
C1290      H1296   1.111       .  S
C1297      C1298   1.395       .  A
C1297      C1302   1.387       .  A
C1297      H1304   1.086       .  S
C1298      C1299   1.403       .  A
C1299      C1300   1.390       .  A
C1299      C1306   1.505       .  S
C1300      C1301   1.398       .  A
C1300      H1305   1.086       .  S
C1301      C1302   1.405       .  A
C1302      C1303   1.505       .  S
C1303      H1307   1.111       .  S
C1303      H1308   1.108       .  S
C1303      H1309   1.110       .  S
C1306      H1310   1.109       .  S
C1306      H1311   1.110       .  S
C1306      H1312   1.111       .  S
C1313      C1314   1.401       .  A
C1313      C1318   1.405       .  A
C1313      H1320   1.085       .  S
C1314      C1315   1.409       .  A
C1315      C1316   1.406       .  A
C1315      C1322   1.506       .  S
C1316      C1317   1.410       .  A
C1316      H1321   1.084       .  S
C1317      C1318   1.419       .  A
C1318      C1319   1.507       .  S
C1319      H1323   1.111       .  S
C1319      H1324   1.110       .  S
C1319      H1325   1.104       .  S
C1322      H1326   1.110       .  S
C1322      H1327   1.110       .  S
C1322      H1328   1.111       .  S
C1329      C1330   1.402       .  A
C1329      C1334   1.411       .  A
C1329      H1336   1.084       .  S
C1330      C1331   1.425       .  A
C1331      C1332   1.418       .  A
C1331      C1338   1.506       .  S
C1332      C1333   1.404       .  A
C1332      H1337   1.084       .  S
C1333      C1334   1.422       .  A
C1334      C1335   1.510       .  S
C1335      H1339   1.111       .  S
C1335      H1340   1.108       .  S
C1335      H1341   1.110       .  S
C1338      H1342   1.107       .  S
C1338      H1343   1.110       .  S
C1338      H1344   1.111       .  S
C1345      C1346   1.403       .  A
C1345      C1350   1.411       .  A
C1345      H1352   1.084       .  S
C1346      C1347   1.426       .  A
C1347      C1348   1.416       .  A
C1347      C1354   1.508       .  S
C1348      C1349   1.403       .  A
C1348      H1353   1.084   1_545  S
C1349      C1350   1.422       .  A
C1350      C1351   1.509       .  S
C1351      H1355   1.111       .  S
C1351      H1356   1.108       .  S
C1351      H1357   1.110       .  S
C1354      H1358   1.110       .  S
C1354      H1359   1.110       .  S
C1354      H1360   1.111   1_545  S
C1361      C1362   1.404       .  A
C1361      C1366   1.404       .  A
C1361      H1368   1.084       .  S
C1362      C1363   1.419       .  A
C1363      C1364   1.403       .  A
C1363      C1370   1.510       .  S
C1364      C1365   1.403       .  A
C1364      H1369   1.083       .  S
C1365      C1366   1.415       .  A
C1366      C1367   1.501       .  S
C1367      H1371   1.111       .  S
C1367      H1372   1.109       .  S
C1367      H1373   1.109       .  S
C1370      H1374   1.109       .  S
C1370      H1375   1.111       .  S
C1370      H1376   1.111       .  S
C1377      C1378   1.409       .  A
C1377      C1382   1.411       .  A
C1377      H1384   1.084       .  S
C1378      C1379   1.410       .  A
C1379      C1380   1.402       .  A
C1379      C1386   1.508       .  S
C1380      C1381   1.406       .  A
C1380      H1385   1.083       .  S
C1381      C1382   1.409       .  A
C1382      C1383   1.505       .  S
C1383      H1387   1.111       .  S
C1383      H1388   1.110       .  S
C1383      H1389   1.110       .  S
C1386      H1390   1.109   1_545  S
C1386      H1391   1.110       .  S
C1386      H1392   1.111       .  S
C1393      C1394   1.398       .  A
C1393      C1398   1.402       .  A
C1393      H1400   1.085       .  S
C1394      C1395   1.416       .  A
C1395      C1396   1.404       .  A
C1395      C1402   1.509       .  S
C1396      C1397   1.403       .  A
C1396      H1401   1.085       .  S
C1397      C1398   1.417       .  A
C1398      C1399   1.506       .  S
C1399      H1403   1.111       .  S
C1399      H1404   1.110       .  S
C1399      H1405   1.110       .  S
C1402      H1406   1.109       .  S
C1402      H1407   1.111       .  S
C1402      H1408   1.111       .  S
C1409      C1410   1.409       .  A
C1409      C1414   1.418       .  A
C1409      H1416   1.083       .  S
C1410      C1411   1.431       .  A
C1411      C1412   1.419       .  A
C1411      C1418   1.508       .  S
C1412      C1413   1.403       .  A
C1412      H1417   1.084       .  S
C1413      C1414   1.422       .  A
C1414      C1415   1.509       .  S
C1415      H1419   1.111       .  S
C1415      H1420   1.109       .  S
C1415      H1421   1.110       .  S
C1418      H1422   1.110       .  S
C1418      H1423   1.110   1_545  S
C1418      H1424   1.111       .  S
C1425      C1426   1.408       .  A
C1425      C1430   1.419   1_565  A
C1425      H1432   1.084       .  S
C1426      C1427   1.415   1_565  A
C1427      C1428   1.409       .  A
C1427      C1434   1.507       .  S
C1428      C1429   1.411       .  A
C1428      H1433   1.084       .  S
C1429      C1430   1.422       .  A
C1430      C1431   1.506   1_545  S
C1431      H1435   1.111       .  S
C1431      H1436   1.110       .  S
C1431      H1437   1.109   1_565  S
C1434      H1438   1.109       .  S
C1434      H1439   1.111       .  S
C1434      H1440   1.110       .  S
C1441      C1442   1.405       .  A
C1441      C1446   1.407       .  A
C1441      H1448   1.082       .  S
C1442      C1443   1.413       .  A
C1443      C1444   1.393       .  A
C1443      C1450   1.511       .  S
C1444      C1445   1.407       .  A
C1444      H1449   1.084       .  S
C1445      C1446   1.418       .  A
C1446      C1447   1.507       .  S
C1447      H1451   1.111       .  S
C1447      H1452   1.110       .  S
C1447      H1453   1.110       .  S
C1450      H1454   1.110       .  S
C1450      H1455   1.109       .  S
C1450      H1456   1.111       .  S
C1457      C1458   1.407       .  A
C1457      C1462   1.411       .  A
C1457      H1464   1.084       .  S
C1458      C1459   1.416       .  A
C1459      C1460   1.402       .  A
C1459      C1466   1.510       .  S
C1460      C1461   1.401       .  A
C1460      H1465   1.085       .  S
C1461      C1462   1.411       .  A
C1462      C1463   1.505       .  S
C1463      H1467   1.111       .  S
C1463      H1468   1.111       .  S
C1463      H1469   1.110       .  S
C1466      H1470   1.109       .  S
C1466      H1471   1.110       .  S
C1466      H1472   1.111       .  S
C1473      C1474   1.398       .  A
C1473      C1478   1.390       .  A
C1473      H1480   1.085       .  S
C1474      C1475   1.402       .  A
C1475      C1476   1.389       .  A
C1475      C1482   1.508       .  S
C1476      C1477   1.405       .  A
C1476      H1481   1.085       .  S
C1477      C1478   1.412       .  A
C1478      C1479   1.509       .  S
C1479      H1483   1.111       .  S
C1479      H1484   1.110       .  S
C1479      H1485   1.111       .  S
C1482      H1486   1.111       .  S
C1482      H1487   1.110       .  S
C1482      H1488   1.111       .  S
C1489      C1490   1.389       .  A
C1489      C1494   1.398       .  A
C1489      H1496   1.085       .  S
C1490      C1491   1.416       .  A
C1491      C1492   1.418       .  A
C1491      C1498   1.505       .  S
C1492      C1493   1.409       .  A
C1492      H1497   1.083       .  S
C1493      C1494   1.437       .  A
C1494      C1495   1.512       .  S
C1495      H1499   1.111       .  S
C1495      H1500   1.110       .  S
C1495      H1501   1.109       .  S
C1498      H1502   1.111       .  S
C1498      H1503   1.110       .  S
C1498      H1504   1.111       .  S
C1505      C1506   1.408       .  A
C1505      C1510   1.414       .  A
C1505      H1512   1.084       .  S
C1506      C1507   1.410       .  A
C1507      C1508   1.406       .  A
C1507      C1514   1.507       .  S
C1508      C1509   1.409       .  A
C1508      H1513   1.084       .  S
C1509      C1510   1.415       .  A
C1510      C1511   1.506       .  S
C1511      H1515   1.111       .  S
C1511      H1516   1.110       .  S
C1511      H1517   1.111       .  S
C1514      H1518   1.110       .  S
C1514      H1519   1.110       .  S
C1514      H1520   1.111       .  S
C1521      C1522   1.409       .  A
C1521      C1526   1.411       .  A
C1521      H1528   1.084       .  S
C1522      C1523   1.419       .  A
C1523      C1524   1.417   1_455  A
C1523      C1530   1.506       .  S
C1524      C1525   1.408   1_655  A
C1524      H1529   1.084       .  S
C1525      C1526   1.414       .  A
C1526      C1527   1.506       .  S
C1527      H1531   1.111       .  S
C1527      H1532   1.110       .  S
C1527      H1533   1.107       .  S
C1530      H1534   1.110       .  S
C1530      H1535   1.111       .  S
C1530      H1536   1.111   1_455  S
C1537      C1538   1.408       .  A
C1537      C1542   1.402       .  A
C1537      H1544   1.084       .  S
C1538      C1539   1.418       .  A
C1539      C1540   1.404       .  A
C1539      C1546   1.509       .  S
C1540      C1541   1.406       .  A
C1540      H1545   1.084       .  S
C1541      C1542   1.418       .  A
C1542      C1543   1.510       .  S
C1543      H1547   1.111       .  S
C1543      H1548   1.110       .  S
C1543      H1549   1.110       .  S
C1546      H1550   1.110       .  S
C1546      H1551   1.110       .  S
C1546      H1552   1.111       .  S
C1553      C1554   1.400       .  A
C1553      C1558   1.405       .  A
C1553      H1560   1.084       .  S
C1554      C1555   1.414       .  A
C1555      C1556   1.403       .  A
C1555      C1562   1.506       .  S
C1556      C1557   1.401       .  A
C1556      H1561   1.085       .  S
C1557      C1558   1.416       .  A
C1558      C1559   1.506       .  S
C1559      H1563   1.110       .  S
C1559      H1564   1.110       .  S
C1559      H1565   1.109       .  S
C1562      H1566   1.110       .  S
C1562      H1567   1.105       .  S
C1562      H1568   1.111       .  S
C1569      C1570   1.404       .  A
C1569      C1574   1.407       .  A
C1569      H1576   1.084       .  S
C1570      C1571   1.408       .  A
C1571      C1572   1.407       .  A
C1571      C1578   1.504       .  S
C1572      C1573   1.406       .  A
C1572      H1577   1.083       .  S
C1573      C1574   1.411       .  A
C1574      C1575   1.506       .  S
C1575      H1579   1.111       .  S
C1575      H1580   1.110       .  S
C1575      H1581   1.110       .  S
C1578      H1582   1.110       .  S
C1578      H1583   1.109       .  S
C1578      H1584   1.110       .  S
C1585      C1586   1.407       .  A
C1585      C1590   1.417       .  A
C1585      H1592   1.079       .  S
C1586      C1587   1.412       .  A
C1587      C1588   1.409       .  A
C1587      C1594   1.507       .  S
C1588      C1589   1.413       .  A
C1588      H1593   1.083       .  S
C1589      C1590   1.420       .  A
C1590      C1591   1.506       .  S
C1591      H1595   1.111       .  S
C1591      H1596   1.111       .  S
C1591      H1597   1.109       .  S
C1594      H1598   1.110       .  S
C1594      H1599   1.108       .  S
C1594      H1600   1.111       .  S
C1601      C1602   1.412       .  A
C1601      C1606   1.407       .  A
C1601      H1608   1.084       .  S
C1602      C1603   1.420       .  A
C1603      C1604   1.422       .  A
C1603      C1610   1.505       .  S
C1604      C1605   1.411       .  A
C1604      H1609   1.084       .  S
C1605      C1606   1.413       .  A
C1606      C1607   1.508   1_455  S
C1607      H1611   1.110       .  S
C1607      H1612   1.109       .  S
C1607      H1613   1.111       .  S
C1610      H1614   1.110       .  S
C1610      H1615   1.110       .  S
C1610      H1616   1.111       .  S
C1617      C1618   1.407       .  A
C1617      C1622   1.405       .  A
C1617      H1624   1.084       .  S
C1618      C1619   1.415       .  A
C1619      C1620   1.404       .  A
C1619      C1626   1.507       .  S
C1620      C1621   1.403       .  A
C1620      H1625   1.084       .  S
C1621      C1622   1.412       .  A
C1622      C1623   1.504       .  S
C1623      H1627   1.111       .  S
C1623      H1628   1.110       .  S
C1623      H1629   1.109       .  S
C1626      H1630   1.109       .  S
C1626      H1631   1.110       .  S
C1626      H1632   1.111       .  S
C1633      C1634   1.400       .  A
C1633      C1638   1.402       .  A
C1633      H1640   1.085       .  S
C1634      C1635   1.414       .  A
C1635      C1636   1.407       .  A
C1635      C1642   1.507       .  S
C1636      C1637   1.402       .  A
C1636      H1641   1.084       .  S
C1637      C1638   1.415       .  A
C1638      C1639   1.508   1_455  S
C1639      H1643   1.109       .  S
C1639      H1644   1.110       .  S
C1639      H1645   1.111       .  S
C1642      H1646   1.110       .  S
C1642      H1647   1.107       .  S
C1642      H1648   1.111       .  S
C1649      C1650   1.397       .  A
C1649      C1654   1.392       .  A
C1649      H1656   1.085       .  S
C1650      C1651   1.408       .  A
C1651      C1652   1.394       .  A
C1651      C1658   1.507       .  S
C1652      C1653   1.397       .  A
C1652      H1657   1.084       .  S
C1653      C1654   1.408       .  A
C1654      C1655   1.507       .  S
C1655      H1659   1.111       .  S
C1655      H1660   1.110       .  S
C1655      H1661   1.108       .  S
C1658      H1662   1.110       .  S
C1658      H1663   1.111       .  S
C1658      H1664   1.111       .  S
C1665      C1666   1.408       .  A
C1665      C1670   1.402       .  A
C1665      H1672   1.083       .  S
C1666      C1667   1.414       .  A
C1667      C1668   1.408       .  A
C1667      C1674   1.507       .  S
C1668      C1669   1.405       .  A
C1668      H1673   1.084       .  S
C1669      C1670   1.406       .  A
C1670      C1671   1.505       .  S
C1671      H1675   1.111       .  S
C1671      H1676   1.110       .  S
C1671      H1677   1.110       .  S
C1674      H1678   1.109       .  S
C1674      H1679   1.110       .  S
C1674      H1680   1.111       .  S
