geometry optimzed in LAMMPS
_audit_creation_date              2020-11-30 
_audit_creation_method            'lammps2cif' 
_symmetry_space_group_name_H-M    'P1' 
_symmetry_Int_Tables_number       1 
_symmetry_cell_setting            triclinic 
loop_ 
_symmetry_equiv_pos_as_xyz 
  x,y,z 
_cell_length_a                    73.04916789 
_cell_length_b                    72.71595568821073 
_cell_length_c                    38.345510092557795 
_cell_angle_alpha                 90.26094459354474 
_cell_angle_beta                  90.12848168500328 
_cell_angle_gamma                 89.93266305416611 
loop_ 
_atom_site_label 
_atom_site_type_symbol 
_atom_site_fract_x 
_atom_site_fract_y 
_atom_site_fract_z 
_atom_site_charge 
Zr1        Zr  0.60592075  0.89306264  0.23287105     2.17500
O2          O  0.58789622  0.91512470  0.26654631    -0.51400
O3          O  0.61313491  0.88475246  0.29327992    -0.74600
O4          O  0.57375179  0.88336086  0.23922513    -0.81400
O5          O  0.64143543  0.93045778  0.20996334    -0.83200
O6          O  0.57064463  0.85511191  0.21421986    -0.78800
O7          O  0.61339522  0.92612248  0.23428084    -0.90400
O8          O  0.63480100  0.86238142  0.29523257    -0.76400
O9          O  0.61101204  0.86067267  0.23406945    -0.85900
O10         O  0.63833575  0.88865497  0.23590433    -0.85600
O11         O  0.59270617  0.88143880  0.17938085    -0.72300
O12         O  0.61852860  0.90661805  0.18130111    -0.84500
Zr13       Zr  0.64310521  0.85710019  0.13167260     2.26400
Zr14       Zr  0.59830517  0.84895157  0.18077024     2.06300
Zr15       Zr  0.65082491  0.90156853  0.18376541     2.10000
Zr16       Zr  0.64337241  0.85631019  0.23590315     1.78800
O17         O  0.65948408  0.92684277  0.14582254    -0.93300
O18         O  0.63575241  0.82659257  0.26110779    -0.41100
O19         O  0.65633936  0.86915890  0.18439555    -0.77700
O20         O  0.63069717  0.84344788  0.18391284    -0.96400
O21         O  0.61079496  0.86202830  0.12875653    -0.89700
O22         O  0.63838221  0.88963786  0.13054990    -0.92500
C23         C  0.62360718  0.87351057  0.30976626     1.01200
C24         C  0.62706787  0.93633635  0.22564637     1.14200
C25         C  0.56435499  0.86890677  0.23153517     1.04900
O26         O  0.59156334  0.82215455  0.21631634    -0.94700
O27         O  0.60528527  0.82129470  0.14754642    -0.90400
O28         O  0.63397365  0.82450301  0.12527323    -0.83600
C29         C  0.61950449  0.81495408  0.13196532     1.11600
O30         O  0.57937023  0.91447763  0.13283980    -0.96700
Zr31       Zr  0.60610451  0.89446875  0.12849551     1.88900
O32         O  0.63710531  0.86654379  0.07138072    -0.73300
O33         O  0.57194746  0.84419431  0.14270314    -0.52600
O34         O  0.57974121  0.88329348  0.09558667    -0.97200
O35         O  0.61273015  0.92598660  0.11114214    -0.54500
O36         O  0.61679820  0.89019747  0.06983970    -0.73800
C37         C  0.62761194  0.87871326  0.05516866     0.98500
O38         O  0.66205113  0.83873026  0.09222841    -0.62600
O39         O  0.67491567  0.90745431  0.22663817    -0.57400
O40         O  0.67611078  0.86442446  0.13599223    -0.94100
O41         O  0.67890963  0.89424081  0.15312893    -0.92600
O42         O  0.67154671  0.86703498  0.26324019    -0.92900
O43         O  0.66824268  0.83416307  0.23034842    -0.91700
C44         C  0.68557868  0.87914062  0.14132622     1.17400
H45         H  0.64342854  0.89444770  0.25617036     0.33300
H46         H  0.63336196  0.83048247  0.18602659     0.44200
H47         H  0.64452319  0.89519695  0.11147350     0.37700
H48         H  0.57987077  0.88403923  0.17741708     0.34200
H49         H  0.64269067  0.82611279  0.28330414     0.26000
H50         H  0.57716432  0.84188555  0.11928221     0.31900
H51         H  0.58443326  0.87300850  0.08114052     0.37800
H52         H  0.67992146  0.86956534  0.24356267     0.32300
H53         H  0.68663098  0.90596608  0.21400690     0.31100
H54         H  0.66850878  0.93402344  0.15953310     0.32800
H55         H  0.62575369  0.92581807  0.10411604     0.31800
H56         H  0.67065103  0.83347572  0.20497206     0.35800
H57         H  0.66903654  0.84765412  0.07807559     0.28500
H58         H  0.58301105  0.90817144  0.28661408     0.32700
H59         H  0.57673583  0.91856728  0.10874215     0.35600
H60         H  0.67418792  0.92078438  0.23176707     0.28200
H61         H  0.67133235  0.83262530  0.10708466     0.41100
H62         H  0.60252828  0.81419666  0.21444536     0.31100
H63         H  0.62280182  0.82780017  0.26833833     0.38800
H64         H  0.61258937  0.93318761  0.13314056     0.30600
H65         H  0.56688194  0.83217007  0.14989841     0.30700
H66         H  0.57706001  0.91803767  0.25199947     0.30900
Zr67       Zr  0.60592053  0.89394664  0.73282686     2.17500
O68         O  0.58708451  0.91507803  0.76705601    -0.51400
O69         O  0.61347586  0.88688244  0.79361105    -0.74600
O70         O  0.57388278  0.88385679  0.73850757    -0.81400
O71         O  0.64170468  0.93110722  0.71375783    -0.83200
O72         O  0.57075180  0.85579165  0.71283121    -0.78800
O73         O  0.61259024  0.92709439  0.73314784    -0.90400
O74         O  0.63491369  0.86431013  0.79577515    -0.76400
O75         O  0.61134291  0.86161183  0.73516525    -0.85900
O76         O  0.63836227  0.88986818  0.73646826    -0.85600
O77         O  0.59309600  0.88184849  0.67936646    -0.72300
O78         O  0.61845252  0.90757320  0.68115855    -0.84500
Zr79       Zr  0.64359953  0.85757661  0.63363507     2.26400
Zr80       Zr  0.59899851  0.84941590  0.68205421     2.06300
Zr81       Zr  0.65076101  0.90282780  0.68438729     2.10000
Zr82       Zr  0.64375175  0.85754886  0.73734667     1.78800
O83         O  0.65733431  0.92782611  0.64428875    -0.93300
O84         O  0.63740721  0.82829777  0.76564837    -0.41100
O85         O  0.65638600  0.87047405  0.68601406    -0.77700
O86         O  0.63128573  0.84404914  0.68580883    -0.96400
O87         O  0.61140386  0.86228328  0.62984778    -0.89700
O88         O  0.63885943  0.89015775  0.63120475    -0.92500
C89         C  0.62392913  0.87565694  0.81011734     1.01200
C90         C  0.62675795  0.93713208  0.72719880     1.14200
C91         C  0.56445190  0.86955749  0.73009517     1.04900
O92         O  0.59549205  0.82363120  0.72175763    -0.94700
O93         O  0.60549543  0.82195982  0.64857557    -0.90400
O94         O  0.63419539  0.82514484  0.62671568    -0.83600
C95         C  0.61969821  0.81565212  0.63304953     1.11600
O96         O  0.58173015  0.91694172  0.63303883    -0.96700
Zr97       Zr  0.60657968  0.89464970  0.62835763     1.88900
O98         O  0.63735421  0.86515174  0.57268608    -0.73300
O99         O  0.57356838  0.84101098  0.64395997    -0.52600
O100        O  0.57891097  0.88342147  0.59965208    -0.97200
O101        O  0.61418814  0.92445237  0.60334429    -0.54500
O102        O  0.61567766  0.88748601  0.56966491    -0.73800
C103        C  0.62687320  0.87614370  0.55569870     0.98500
O104        O  0.66583070  0.83872693  0.60212464    -0.62600
O105        O  0.67624997  0.91119187  0.72245989    -0.57400
O106        O  0.67619585  0.86535860  0.63508442    -0.94100
O107        O  0.67967004  0.89399879  0.65832178    -0.92600
O108        O  0.67155358  0.86838774  0.76588142    -0.92900
O109        O  0.66868492  0.83558505  0.72978089    -0.91700
C110        C  0.68592837  0.87943755  0.64355383     1.17400
H111        H  0.64338583  0.89590432  0.75685818     0.33300
H112        H  0.63386447  0.83113590  0.68791118     0.44200
H113        H  0.64505088  0.89552475  0.61138915     0.37700
H114        H  0.58023433  0.88439977  0.67693350     0.34200
H115        H  0.64403606  0.82891522  0.78818106     0.26000
H116        H  0.56620534  0.83218983  0.65763073     0.31900
H117        H  0.58315062  0.87471046  0.58146285     0.37800
H118        H  0.67813917  0.87531517  0.74763548     0.32300
H119        H  0.68160033  0.92230914  0.71171537     0.31100
H120        H  0.67068288  0.92989294  0.64647304     0.32800
H121        H  0.62416124  0.92195928  0.58652696     0.31800
H122        H  0.66400974  0.82631241  0.71301799     0.35800
H123        H  0.66897339  0.82844563  0.61793486     0.28500
H124        H  0.58192779  0.90768274  0.78629406     0.32700
H125        H  0.57761750  0.91924480  0.60882075     0.35600
H126        H  0.67061610  0.91568008  0.74435885     0.28200
H127        H  0.65904941  0.83297490  0.58254367     0.41100
H128        H  0.58848279  0.81430942  0.70840844     0.31100
H129        H  0.62430554  0.82895819  0.77209824     0.38800
H130        H  0.62018374  0.93131399  0.62256869     0.30600
H131        H  0.56587686  0.85220187  0.64252866     0.30700
H132        H  0.57647109  0.91822283  0.75209071     0.30900
Zr133      Zr  0.89292565  0.89408424  0.01681317     2.17500
O134        O  0.91164048  0.91771771  0.98932454    -0.51400
O135        O  0.88699233  0.88635888  0.95572277    -0.74600
O136        O  0.92514740  0.88503542  0.01004700    -0.81400
O137        O  0.85629563  0.93042391  0.03995203    -0.83200
O138        O  0.92821651  0.85612635  0.03161116    -0.78800
O139        O  0.88399403  0.92654205  0.01383080    -0.90400
O140        O  0.86505586  0.86431405  0.95279039    -0.76400
O141        O  0.88787035  0.86179058  0.01234497    -0.85900
O142        O  0.86059049  0.88939609  0.01354490    -0.85600
O143        O  0.90622262  0.88139128  0.06902338    -0.72300
O144        O  0.88034331  0.90685584  0.06938316    -0.84500
Zr145      Zr  0.85647249  0.85606938  0.11519794     2.26400
Zr146      Zr  0.90071628  0.84901277  0.06424185     2.06300
Zr147      Zr  0.84814838  0.90132735  0.06668434     2.10000
Zr148      Zr  0.85560988  0.85710051  0.01083877     1.78800
O149        O  0.83981975  0.92580376  0.10718556    -0.93300
O150        O  0.86388430  0.82777734  0.98408980    -0.41100
O151        O  0.84278505  0.86885350  0.06364015    -0.77700
O152        O  0.86839032  0.84342308  0.06168803    -0.96400
O153        O  0.88873768  0.86113492  0.11771752    -0.89700
O154        O  0.86084634  0.88856661  0.11883497    -0.92500
C155        C  0.87655484  0.87521517  0.93885819     1.01200
C156        C  0.87018996  0.93643769  0.02299192     1.14200
C157        C  0.93453495  0.87043278  0.01631856     1.04900
O158        O  0.90677878  0.82396940  0.02346866    -0.94700
O159        O  0.89420327  0.82071966  0.09480067    -0.90400
O160        O  0.86682258  0.82410141  0.12229645    -0.83600
C161        C  0.88087597  0.81454923  0.11306833     1.11600
O162        O  0.91739485  0.91619974  0.11581976    -0.96700
Zr163      Zr  0.89298499  0.89360226  0.12082881     1.88900
O164        O  0.86211934  0.86381183  0.17648335    -0.73300
O165        O  0.92651083  0.84254272  0.10261198    -0.52600
O166        O  0.92158424  0.88528273  0.14963426    -0.97200
O167        O  0.88441371  0.92326173  0.14575575    -0.54500
O168        O  0.88434759  0.88557002  0.17910087    -0.73800
C169        C  0.87296481  0.87459948  0.19326237     0.98500
O170        O  0.83740810  0.83269351  0.14269718    -0.62600
O171        O  0.82410077  0.90755875  0.02421223    -0.57400
O172        O  0.82395497  0.86453544  0.11852603    -0.94100
O173        O  0.82010592  0.89325689  0.09646572    -0.92600
O174        O  0.82698932  0.86782534  0.98520432    -0.92900
O175        O  0.83132096  0.83417636  0.01068393    -0.91700
C176        C  0.81414302  0.87878522  0.11166985     1.17400
H177        H  0.85541755  0.89559435  0.99354055     0.33300
H178        H  0.86577957  0.83042067  0.05940397     0.44200
H179        H  0.85469192  0.89371377  0.13902853     0.37700
H180        H  0.91910040  0.88394210  0.07137852     0.34200
H181        H  0.85793001  0.82788030  0.96086356     0.26000
H182        H  0.93339659  0.83263238  0.09063831     0.31900
H183        H  0.91981190  0.88843295  0.17454786     0.37800
H184        H  0.83042793  0.87338862  0.96264026     0.32300
H185        H  0.81489380  0.89777341  0.02781952     0.31100
H186        H  0.82898289  0.93174077  0.09650458     0.32800
H187        H  0.87206975  0.92137976  0.15570091     0.31800
H188        H  0.83249540  0.82790739  0.03344938     0.35800
H189        H  0.83076778  0.83900843  0.16181311     0.28500
H190        H  0.91739772  0.91175255  0.96883689     0.32700
H191        H  0.91854907  0.91836683  0.09044096     0.35600
H192        H  0.81810900  0.91893480  0.03272331     0.28200
H193        H  0.82789456  0.82944623  0.12529786     0.41100
H194        H  0.91454152  0.81520666  0.03655057     0.31100
H195        H  0.87711408  0.82887119  0.97898282     0.38800
H196        H  0.88232781  0.93131858  0.12537354     0.30600
H197        H  0.93450022  0.85349291  0.10092505     0.30700
H198        H  0.92184386  0.92018999  0.00575385     0.30900
Zr199      Zr  0.85652892  0.85638557  0.61484117     2.17500
O200        O  0.83317850  0.83773051  0.64316371    -0.51400
O201        O  0.86382765  0.86261133  0.67627039    -0.74600
O202        O  0.86629573  0.82408979  0.62134198    -0.81400
O203        O  0.82016922  0.89323064  0.59242750    -0.83200
O204        O  0.89464396  0.82079224  0.59768136    -0.78800
O205        O  0.82372022  0.86464415  0.61535705    -0.90400
O206        O  0.88670001  0.88367846  0.67947921    -0.76400
O207        O  0.88879571  0.86135286  0.61851961    -0.85900
O208        O  0.86105643  0.88889092  0.61923675    -0.85600
O209        O  0.86895516  0.84341444  0.56182482    -0.72300
O210        O  0.84384369  0.86949100  0.56278081    -0.84500
Zr211      Zr  0.89415791  0.89414902  0.51756432     2.26400
Zr212      Zr  0.90132382  0.84884420  0.56585793     2.06300
Zr213      Zr  0.84905325  0.90186574  0.56675637     2.10000
Zr214      Zr  0.89320484  0.89383521  0.62158887     1.78800
O215        O  0.82419194  0.91072920  0.52788067    -0.93300
O216        O  0.92248927  0.88788540  0.64999727    -0.41100
O217        O  0.88129799  0.90736671  0.56974704    -0.77700
O218        O  0.90668149  0.88126356  0.57027626    -0.96400
O219        O  0.88918665  0.86180608  0.51341548    -0.89700
O220        O  0.86180293  0.88979831  0.51393913    -0.92500
C221        C  0.87530527  0.87262538  0.69331525     1.01200
C222        C  0.81394870  0.87879957  0.60730466     1.14200
C223        C  0.88065873  0.81452035  0.61398291     1.04900
O224        O  0.92752597  0.84332556  0.60377320    -0.94700
O225        O  0.92918398  0.85582697  0.53421386    -0.90400
O226        O  0.92595819  0.88396482  0.50917223    -0.83600
C227        C  0.93540883  0.86961305  0.51712890     1.11600
O228        O  0.83431916  0.83290817  0.51137536    -0.96700
Zr229      Zr  0.85692897  0.85752179  0.51051765     1.88900
O230        O  0.88695955  0.88855152  0.45589769    -0.73300
O231        O  0.90797763  0.82339632  0.52620867    -0.52600
O232        O  0.86748363  0.83072443  0.47783177    -0.97200
O233        O  0.82773852  0.86770748  0.48636223    -0.54500
O234        O  0.86449696  0.86703502  0.45275931    -0.73800
C235        C  0.87575729  0.87820578  0.43888469     0.98500
O236        O  0.91866257  0.91380705  0.49589273    -0.62600
O237        O  0.84135743  0.92557097  0.60950018    -0.57400
O238        O  0.88481176  0.92654018  0.51283244    -0.94100
O239        O  0.85698268  0.93035443  0.53836051    -0.92600
O240        O  0.88143759  0.92095492  0.65155360    -0.92900
O241        O  0.91506240  0.91889503  0.61541724    -0.91700
C242        C  0.87080887  0.93634032  0.52133016     1.17400
H243        H  0.85493881  0.89391084  0.63946063     0.33300
H244        H  0.91963140  0.88381507  0.57247323     0.44200
H245        H  0.85667106  0.89618297  0.49410186     0.37700
H246        H  0.86629390  0.83050058  0.55934294     0.34200
H247        H  0.92252232  0.89597448  0.67085551     0.26000
H248        H  0.91963449  0.81813849  0.53486387     0.31900
H249        H  0.86951798  0.82107186  0.49554208     0.37800
H250        H  0.87924355  0.93003555  0.63285011     0.32300
H251        H  0.84945175  0.93608912  0.60418527     0.31100
H252        H  0.81765166  0.92067453  0.54045063     0.32800
H253        H  0.83080807  0.87775354  0.47005263     0.31800
H254        H  0.90922371  0.92755537  0.59891566     0.35800
H255        H  0.91323935  0.92142764  0.47718483     0.28500
H256        H  0.83934584  0.83180561  0.66319879     0.32700
H257        H  0.83095752  0.83082461  0.48663412     0.35600
H258        H  0.82897649  0.92983764  0.60273765     0.28200
H259        H  0.92137489  0.92249881  0.51517975     0.41100
H260        H  0.93220534  0.83109954  0.59660250     0.31100
H261        H  0.92140320  0.87529083  0.65947222     0.38800
H262        H  0.82147664  0.87394850  0.50599273     0.30600
H263        H  0.89869083  0.81388479  0.53131457     0.30700
H264        H  0.83049258  0.82756692  0.62663786     0.30900
Zr265      Zr  0.85733268  0.14305402  0.38386106     2.17500
O266        O  0.83479470  0.16305230  0.35598084    -0.51400
O267        O  0.86312258  0.13476529  0.32306240    -0.74600
O268        O  0.86805379  0.17463889  0.37450738    -0.81400
O269        O  0.81985383  0.10799342  0.40865022    -0.83200
O270        O  0.89684092  0.17733631  0.39665682    -0.78800
O271        O  0.82423118  0.13605574  0.38400908    -0.90400
O272        O  0.88468325  0.11225756  0.32085763    -0.76400
O273        O  0.88944560  0.13681771  0.37960046    -0.85900
O274        O  0.86073650  0.11033865  0.38284073    -0.85600
O275        O  0.87112703  0.15693538  0.43486388    -0.72300
O276        O  0.84451767  0.13207213  0.43719800    -0.84500
Zr277      Zr  0.89393472  0.10660031  0.48400515     2.26400
Zr278      Zr  0.90317566  0.14989331  0.43086672     2.06300
Zr279      Zr  0.84842033  0.09944948  0.43672400     2.10000
Zr280      Zr  0.89275090  0.10423587  0.37980162     1.78800
O281        O  0.82491827  0.09512772  0.48083831    -0.93300
O282        O  0.92208850  0.11156981  0.35315948    -0.41100
O283        O  0.88040523  0.09279587  0.43305578    -0.77700
O284        O  0.90724316  0.11719131  0.43004424    -0.96400
O285        O  0.89064414  0.13930599  0.48481553    -0.89700
O286        O  0.86188881  0.11272533  0.48776549    -0.92500
C287        C  0.87361952  0.12357440  0.30647245     1.01200
C288        C  0.81402840  0.12236029  0.39274378     1.14200
C289        C  0.88274051  0.18382306  0.38078966     1.04900
O290        O  0.92942602  0.15463648  0.39282665    -0.94700
O291        O  0.93026905  0.14215271  0.46487197    -0.90400
O292        O  0.92629114  0.11452894  0.49131255    -0.83600
C293        C  0.93606887  0.12852413  0.48303129     1.11600
O294        O  0.83736190  0.17095385  0.48093694    -0.96700
Zr295      Zr  0.85860296  0.14534639  0.48745105     1.88900
O296        O  0.88495000  0.11289667  0.54448178    -0.73300
O297        O  0.91186196  0.17633215  0.46640581    -0.52600
O298        O  0.86962405  0.17337994  0.51559571    -0.97200
O299        O  0.82843594  0.13924516  0.51161900    -0.54500
O300        O  0.86519343  0.13700664  0.54641190    -0.73800
C301        C  0.87470883  0.12441749  0.56086712     0.98500
O302        O  0.91452586  0.08787595  0.51953585    -0.62600
O303        O  0.83773629  0.07473789  0.39881445    -0.57400
O304        O  0.88596678  0.07385020  0.48381484    -0.94100
O305        O  0.85658617  0.07067923  0.46510417    -0.92600
O306        O  0.88324880  0.07528193  0.35320505    -0.92900
O307        O  0.91402821  0.07868469  0.38669373    -0.91700
C308        C  0.87145722  0.06427337  0.47823985     1.17400
H309        H  0.85429060  0.10495111  0.36340508     0.33300
H310        H  0.92006495  0.11392447  0.42811959     0.44200
H311        H  0.85645864  0.10718056  0.50817091     0.37700
H312        H  0.86906906  0.16996824  0.43628612     0.34200
H313        H  0.92324980  0.10281777  0.33343203     0.26000
H314        H  0.92202663  0.18212592  0.45342667     0.31900
H315        H  0.87186451  0.18214312  0.49639432     0.37800
H316        H  0.88703959  0.07613088  0.32849041     0.32300
H317        H  0.84892284  0.06773837  0.39272491     0.31100
H318        H  0.81641724  0.08600312  0.47052617     0.32800
H319        H  0.82966605  0.12727161  0.52358173     0.31800
H320        H  0.91642734  0.07815286  0.41209987     0.35800
H321        H  0.90670535  0.08195680  0.53731282     0.28500
H322        H  0.84075077  0.16795349  0.33480585     0.32700
H323        H  0.83140172  0.16876679  0.45806903     0.35600
H324        H  0.83074437  0.06644898  0.41425964     0.28200
H325        H  0.91877432  0.07768689  0.50434203     0.41100
H326        H  0.93725271  0.14365407  0.39613053     0.31100
H327        H  0.92017638  0.12366604  0.34195906     0.38800
H328        H  0.82059767  0.13657337  0.49111695     0.30600
H329        H  0.90155970  0.18510218  0.46416896     0.30700
H330        H  0.83330333  0.17378582  0.37174501     0.30900
Zr331      Zr  0.89338787  0.10658571  0.98252102     2.17500
O332        O  0.91229213  0.08380524  0.01229908    -0.51400
O333        O  0.88685701  0.11360338  0.04360483    -0.74600
O334        O  0.92557493  0.11621560  0.98916781    -0.81400
O335        O  0.85639224  0.07049498  0.96379500    -0.83200
O336        O  0.92902569  0.14386093  0.96251771    -0.78800
O337        O  0.88556637  0.07392894  0.98366063    -0.90400
O338        O  0.86477403  0.13553700  0.04663690    -0.76400
O339        O  0.88838705  0.13891470  0.98561549    -0.85900
O340        O  0.86096537  0.11107797  0.98630472    -0.85600
O341        O  0.90624883  0.11844570  0.92945413    -0.72300
O342        O  0.88010023  0.09319808  0.93102939    -0.84500
Zr343      Zr  0.85579823  0.14346603  0.88346016     2.26400
Zr344      Zr  0.90060762  0.15092129  0.93249178     2.06300
Zr345      Zr  0.84784899  0.09868187  0.93394221     2.10000
Zr346      Zr  0.85608841  0.14338930  0.98810491     1.78800
O347        O  0.83993415  0.07171710  0.89911702    -0.93300
O348        O  0.86591312  0.17252348  0.01357099    -0.41100
O349        O  0.84269091  0.13119616  0.93600340    -0.77700
O350        O  0.86830584  0.15656294  0.93624186    -0.96400
O351        O  0.88793771  0.13805081  0.88028217    -0.89700
O352        O  0.86012092  0.11085360  0.88091623    -0.92500
C353        C  0.87617910  0.12443243  0.06059188     1.01200
C354        C  0.87116487  0.06426595  0.97763284     1.14200
C355        C  0.93518340  0.13028114  0.98036721     1.04900
O356        O  0.90642108  0.17637725  0.97248995    -0.94700
O357        O  0.89392148  0.17875738  0.90059107    -0.90400
O358        O  0.86546767  0.17584489  0.87700308    -0.83600
C359        C  0.87993371  0.18524395  0.88452712     1.11600
O360        O  0.91664352  0.08266153  0.88281279    -0.96700
Zr361      Zr  0.89233841  0.10558972  0.87878013     1.88900
O362        O  0.86220782  0.13514173  0.82250209    -0.73300
O363        O  0.92501091  0.15852287  0.89186208    -0.52600
O364        O  0.92037039  0.11535287  0.84985517    -0.97200
O365        O  0.88310405  0.07582541  0.85513339    -0.54500
O366        O  0.88373379  0.11261304  0.82039939    -0.73800
C367        C  0.87269719  0.12386276  0.80600926     0.98500
O368        O  0.83662151  0.16483974  0.85062150    -0.62600
O369        O  0.82214962  0.09335379  0.97302637    -0.57400
O370        O  0.82294465  0.13575806  0.88399981    -0.94100
O371        O  0.81978640  0.10638017  0.90299707    -0.92600
O372        O  0.82782064  0.13341196  0.01578498    -0.92900
O373        O  0.83150800  0.16607415  0.98741677    -0.91700
C374        C  0.81335966  0.12123534  0.88973525     1.17400
H375        H  0.85601383  0.10513511  0.00640254     0.33300
H376        H  0.86575782  0.16956834  0.93850989     0.44200
H377        H  0.85386058  0.10562677  0.86101524     0.37700
H378        H  0.91906591  0.11570203  0.92700342     0.34200
H379        H  0.85784098  0.17441963  0.03398207     0.26000
H380        H  0.93362689  0.16625565  0.90544813     0.31900
H381        H  0.91961944  0.11020134  0.82594795     0.37800
H382        H  0.81945559  0.13045188  0.99619570     0.32300
H383        H  0.81531880  0.08307503  0.96207692     0.31100
H384        H  0.84008523  0.07592950  0.87462395     0.32800
H385        H  0.87078364  0.07783706  0.84506951     0.31800
H386        H  0.83398727  0.17376388  0.96672451     0.35800
H387        H  0.83001363  0.15729231  0.83310561     0.28500
H388        H  0.91809011  0.09034068  0.03214825     0.32700
H389        H  0.91950337  0.07909405  0.85846747     0.35600
H390        H  0.82755955  0.08795915  0.99434275     0.28200
H391        H  0.82708446  0.16920113  0.86702421     0.41100
H392        H  0.91349897  0.18539937  0.95875307     0.31100
H393        H  0.87808018  0.16989178  0.02384360     0.38800
H394        H  0.88092426  0.06805458  0.87585343     0.30600
H395        H  0.93163947  0.14681261  0.88801084     0.30700
H396        H  0.92245625  0.08092762  0.99609490     0.30900
Zr397      Zr  0.64209137  0.14345688  0.36397334     2.17500
O398        O  0.66507790  0.16323106  0.39122997    -0.51400
O399        O  0.63603289  0.13550651  0.42490080    -0.74600
O400        O  0.63163505  0.17538735  0.37335484    -0.81400
O401        O  0.67919594  0.10853629  0.33738420    -0.83200
O402        O  0.60333815  0.17878538  0.34938490    -0.78800
O403        O  0.67503428  0.13603323  0.36474702    -0.90400
O404        O  0.61429618  0.11322952  0.42656036    -0.76400
O405        O  0.60982753  0.13832255  0.36733731    -0.85900
O406        O  0.63779154  0.11081008  0.36587767    -0.85600
O407        O  0.62924342  0.15703303  0.31209608    -0.72300
O408        O  0.65481892  0.13135824  0.31088501    -0.84500
Zr409      Zr  0.60446277  0.10719619  0.26358004     2.26400
Zr410      Zr  0.59692658  0.15129342  0.31538404     2.06300
Zr411      Zr  0.64992248  0.09888703  0.31240204     2.10000
Zr412      Zr  0.60551749  0.10585482  0.36790439     1.78800
O413        O  0.67543821  0.08943158  0.27569073    -0.93300
O414        O  0.57723232  0.11481242  0.39715538    -0.41100
O415        O  0.61761673  0.09347680  0.31499863    -0.77700
O416        O  0.59155258  0.11874866  0.31715539    -0.96400
O417        O  0.60916723  0.13958097  0.26181642    -0.89700
O418        O  0.63686115  0.11184223  0.26064408    -0.92500
C419        C  0.62550251  0.12431371  0.44120342     1.01200
C420        C  0.68522454  0.12261678  0.35427334     1.14200
C421        C  0.61723965  0.18494147  0.36628956     1.04900
O422        O  0.57054770  0.15738664  0.35243074    -0.94700
O423        O  0.56905623  0.14514650  0.28265146    -0.90400
O424        O  0.57242677  0.11744433  0.25577416    -0.83600
C425        C  0.56290907  0.13171108  0.26420472     1.11600
O426        O  0.66454074  0.16826305  0.26436026    -0.96700
Zr427      Zr  0.64143550  0.14421252  0.25975322     1.88900
O428        O  0.61226630  0.11370906  0.20265082    -0.73300
O429        O  0.59155075  0.17754504  0.27744993    -0.52600
O430        O  0.63161946  0.17297959  0.23326660    -0.97200
O431        O  0.66959741  0.13406612  0.23154133    -0.54500
O432        O  0.63355871  0.13639885  0.20096979    -0.73800
C433        C  0.62296534  0.12473117  0.18632061     0.98500
O434        O  0.58484268  0.08498499  0.23357752    -0.62600
O435        O  0.65754028  0.07437538  0.35307278    -0.57400
O436        O  0.61218178  0.07452542  0.26033089    -0.94100
O437        O  0.64130163  0.07109556  0.28052690    -0.92600
O438        O  0.61409712  0.07626350  0.39269210    -0.92900
O439        O  0.58221949  0.08198170  0.36464454    -0.91700
C440        C  0.62666197  0.06491587  0.26596724     1.17400
H441        H  0.64404770  0.10546763  0.38557067     0.33300
H442        H  0.57862411  0.11602833  0.31877544     0.44200
H443        H  0.64201285  0.10595460  0.24024699     0.37700
H444        H  0.63173972  0.16996020  0.31067440     0.34200
H445        H  0.58023633  0.12634799  0.40971379     0.26000
H446        H  0.58100465  0.18405102  0.28802367     0.31900
H447        H  0.61908482  0.17052936  0.22454474     0.37800
H448        H  0.62595714  0.07839942  0.40455819     0.32300
H449        H  0.64860663  0.06447679  0.34808813     0.31100
H450        H  0.67368776  0.09611231  0.25350919     0.32800
H451        H  0.67932197  0.13545934  0.24938368     0.31800
H452        H  0.58377846  0.07644780  0.34119571     0.35800
H453        H  0.57434483  0.08273956  0.24932584     0.28500
H454        H  0.65936288  0.16816732  0.41271172     0.32700
H455        H  0.67231358  0.16453946  0.28431438     0.35600
H456        H  0.66936535  0.06946503  0.34450214     0.28200
H457        H  0.57962303  0.09149678  0.21323489     0.41100
H458        H  0.57518924  0.15597722  0.37654272     0.31100
H459        H  0.56879132  0.11867045  0.37832783     0.38800
H460        H  0.67230426  0.14356203  0.21386464     0.30600
H461        H  0.60209243  0.18584098  0.28145930     0.30700
H462        H  0.66644468  0.17395808  0.37560794     0.30900
Zr463      Zr  0.60467263  0.10872264  0.76360713     2.17500
O464        O  0.58551500  0.08742495  0.73034923    -0.51400
O465        O  0.61196560  0.11588237  0.70287526    -0.74600
O466        O  0.57253599  0.11916732  0.75799708    -0.81400
O467        O  0.64150025  0.07198439  0.78262667    -0.83200
O468        O  0.56930525  0.14688038  0.78508637    -0.78800
O469        O  0.61246655  0.07568040  0.76209449    -0.90400
O470        O  0.63340892  0.13839991  0.70127841    -0.76400
O471        O  0.60975011  0.14112032  0.76243802    -0.85900
O472        O  0.63710430  0.11313191  0.76038892    -0.85600
O473        O  0.59185729  0.12048083  0.81725935    -0.72300
O474        O  0.61774235  0.09478540  0.81462929    -0.84500
Zr475      Zr  0.64221187  0.14468214  0.86422896     2.26400
Zr476      Zr  0.59753229  0.15300784  0.81601525     2.06300
Zr477      Zr  0.64995087  0.10019105  0.81230831     2.10000
Zr478      Zr  0.64207330  0.14542868  0.76001017     1.78800
O479        O  0.65688386  0.07489288  0.85158853    -0.93300
O480        O  0.63321864  0.17461911  0.73387965    -0.41100
O481        O  0.65530947  0.13263204  0.81139829    -0.77700
O482        O  0.62981851  0.15834377  0.81213321    -0.96400
O483        O  0.61004014  0.13951468  0.86744994    -0.89700
O484        O  0.63780248  0.11211758  0.86569602    -0.92500
C485        C  0.62253704  0.12702623  0.68661315     1.01200
C486        C  0.62679735  0.06583435  0.76841481     1.14200
C487        C  0.56304223  0.13337054  0.76706384     1.04900
O488        O  0.59021232  0.17917965  0.77912744    -0.94700
O489        O  0.60503513  0.18091606  0.84826419    -0.90400
O490        O  0.63321401  0.17697282  0.87244621    -0.83600
C491        C  0.61905987  0.18681278  0.86517303     1.11600
O492        O  0.58422690  0.08176023  0.85768128    -0.96700
Zr493      Zr  0.60560995  0.10700295  0.86738681     1.88900
O494        O  0.63538967  0.13649931  0.92482542    -0.73300
O495        O  0.57253607  0.15813455  0.85694708    -0.52600
O496        O  0.57621615  0.11308550  0.89504356    -0.97200
O497        O  0.61632147  0.07920021  0.89645073    -0.54500
O498        O  0.61166225  0.11635073  0.92593534    -0.73800
C499        C  0.62352511  0.12658112  0.94082028     0.98500
O500        O  0.66105872  0.16726602  0.89493012    -0.62600
O501        O  0.67476679  0.09271802  0.77232065    -0.57400
O502        O  0.67487192  0.13627746  0.86523203    -0.94100
O503        O  0.67853511  0.10794003  0.84091538    -0.92600
O504        O  0.67081250  0.13587836  0.73322335    -0.92900
O505        O  0.66662162  0.16796388  0.76409034    -0.91700
C506        C  0.68469737  0.12225104  0.85665122     1.17400
H507        H  0.64223779  0.10721185  0.73997609     0.33300
H508        H  0.63254549  0.17130701  0.81036980     0.44200
H509        H  0.64401771  0.10679536  0.88540215     0.37700
H510        H  0.57900343  0.11782701  0.81961547     0.34200
H511        H  0.64167834  0.17622084  0.71398254     0.26000
H512        H  0.57843332  0.16253159  0.87871142     0.31900
H513        H  0.57664920  0.12625794  0.90161941     0.37800
H514        H  0.66744282  0.13031565  0.71049833     0.32300
H515        H  0.68129603  0.10448557  0.76883224     0.31100
H516        H  0.66608903  0.06739366  0.83901350     0.32800
H517        H  0.62635700  0.08314492  0.91216718     0.31800
H518        H  0.67179817  0.16624275  0.78774055     0.35800
H519        H  0.66736070  0.16041964  0.91372565     0.28500
H520        H  0.58000690  0.09475740  0.71131308     0.32700
H521        H  0.58080272  0.07736171  0.88117821     0.35600
H522        H  0.68336399  0.08511784  0.78613208     0.28200
H523        H  0.67084664  0.17078335  0.87842467     0.41100
H524        H  0.60172654  0.18631010  0.77780321     0.31100
H525        H  0.62117572  0.17221233  0.72287331     0.38800
H526        H  0.62244328  0.07196100  0.87791977     0.30600
H527        H  0.56597517  0.16902091  0.84779385     0.30700
H528        H  0.57516757  0.08427312  0.74585755     0.30900
Zr529      Zr  0.14213685  0.85585903  0.11802422     2.17500
O530        O  0.16173747  0.83290701  0.14567591    -0.51400
O531        O  0.13601310  0.86379865  0.17918795    -0.74600
O532        O  0.17446846  0.86539189  0.12361839    -0.81400
O533        O  0.10401161  0.82073749  0.10061299    -0.83200
O534        O  0.17847969  0.89311237  0.09748858    -0.78800
O535        O  0.13261707  0.82346021  0.12357921    -0.90400
O536        O  0.11506781  0.88688017  0.18155166    -0.76400
O537        O  0.13824262  0.88841192  0.11963198    -0.85900
O538        O  0.10999365  0.86168124  0.12254260    -0.85600
O539        O  0.15478890  0.86701184  0.06388545    -0.72300
O540        O  0.12826703  0.84243757  0.06696462    -0.84500
Zr541      Zr  0.10467700  0.89321882  0.01934013     2.26400
Zr542      Zr  0.15037767  0.89976871  0.06596917     2.06300
Zr543      Zr  0.09632930  0.84901135  0.07103134     2.10000
Zr544      Zr  0.10619255  0.89419248  0.12333891     1.78800
O545        O  0.08842563  0.82259836  0.03477786    -0.93300
O546        O  0.11676312  0.92167538  0.15415807    -0.41100
O547        O  0.09185584  0.88158083  0.07259843    -0.77700
O548        O  0.11831995  0.90658227  0.07102107    -0.96400
O549        O  0.13662529  0.88693018  0.01462568    -0.89700
O550        O  0.10811935  0.86058206  0.01743661    -0.92500
C551        C  0.12596464  0.87542002  0.19579911     1.01200
C552        C  0.11806797  0.81415390  0.11631898     1.14200
C553        C  0.18437362  0.87930835  0.11499048     1.04900
O554        O  0.15826624  0.92582440  0.10314658    -0.94700
O555        O  0.14413030  0.92786584  0.03390748    -0.90400
O556        O  0.11523587  0.92520875  0.01206510    -0.83600
C557        C  0.12997523  0.93441382  0.01838351     1.11600
O558        O  0.16197992  0.82929603  0.01949642    -0.96700
Zr559      Zr  0.13998048  0.85433087  0.01360224     1.88900
O560        O  0.11133267  0.88610947  0.95807030    -0.73300
O561        O  0.17491881  0.90397929  0.02391590    -0.52600
O562        O  0.16772900  0.86206739  0.98173103    -0.97200
O563        O  0.12890834  0.82595815  0.98669912    -0.54500
O564        O  0.13127815  0.86218146  0.95527828    -0.73800
C565        C  0.12102989  0.87429356  0.94118899     0.98500
O566        O  0.08138802  0.91241793  0.99185361    -0.62600
O567        O  0.07031318  0.84451993  0.10980204    -0.57400
O568        O  0.07215730  0.88459633  0.01534030    -0.94100
O569        O  0.06895962  0.85601743  0.03834610    -0.92600
O570        O  0.07763398  0.88580705  0.15176268    -0.92900
O571        O  0.08417298  0.91914078  0.11638592    -0.91700
C572        C  0.06271911  0.87011219  0.02226337     1.17400
H573        H  0.10497466  0.85607311  0.14322393     0.33300
H574        H  0.11621475  0.91958745  0.07321600     0.44200
H575        H  0.10145067  0.85544847  0.99790560     0.37700
H576        H  0.16755361  0.86392649  0.06141303     0.34200
H577        H  0.13025065  0.92040287  0.15514762     0.26000
H578        H  0.18237350  0.91416638  0.03358208     0.31900
H579        H  0.16520786  0.87420016  0.97111229     0.37800
H580        H  0.06852987  0.88506574  0.13263703     0.32300
H581        H  0.06580025  0.83202014  0.10416195     0.31100
H582        H  0.07712190  0.81759200  0.04529365     0.32800
H583        H  0.11715435  0.82916708  0.97534683     0.31800
H584        H  0.08067551  0.91866958  0.09143088     0.35800
H585        H  0.07923633  0.92274922  0.00827460     0.28500
H586        H  0.16737151  0.83912409  0.16605881     0.32700
H587        H  0.16650842  0.82680442  0.99562088     0.35600
H588        H  0.07558434  0.84337384  0.13348641     0.28200
H589        H  0.08738363  0.91802191  0.97136820     0.41100
H590        H  0.16780046  0.93256874  0.09010457     0.31100
H591        H  0.11469006  0.93206909  0.13804396     0.38800
H592        H  0.12539999  0.81803463  0.00651026     0.30600
H593        H  0.18274643  0.89293458  0.02637836     0.30700
H594        H  0.17195263  0.83064682  0.12924540     0.30900
Zr595      Zr  0.10659082  0.89410841  0.51853825     2.17500
O596        O  0.08420781  0.91350797  0.48880233    -0.51400
O597        O  0.11331766  0.88686821  0.45735963    -0.74600
O598        O  0.11688631  0.92615122  0.51200994    -0.81400
O599        O  0.07008767  0.85809798  0.54162092    -0.83200
O600        O  0.14526368  0.92938542  0.53575492    -0.78800
O601        O  0.07373781  0.88633180  0.51733570    -0.90400
O602        O  0.13452739  0.86408905  0.45498528    -0.76400
O603        O  0.13878387  0.88878916  0.51509968    -0.85900
O604        O  0.11087922  0.86153059  0.51536470    -0.85600
O605        O  0.11925822  0.90723196  0.57124877    -0.72300
O606        O  0.09380774  0.88175407  0.57106466    -0.84500
Zr607      Zr  0.14398856  0.85622503  0.61702822     2.26400
Zr608      Zr  0.15151953  0.90126358  0.56771181     2.06300
Zr609      Zr  0.09880085  0.84935631  0.56829561     2.10000
Zr610      Zr  0.14301212  0.85632469  0.51278977     1.78800
O611        O  0.07547174  0.84226004  0.61142781    -0.93300
O612        O  0.17042916  0.86609158  0.48166799    -0.41100
O613        O  0.13091494  0.84318675  0.56482677    -0.77700
O614        O  0.15686360  0.86862992  0.56393316    -0.96400
O615        O  0.13940668  0.88874225  0.62053489    -0.89700
O616        O  0.11181788  0.86154390  0.62067399    -0.92500
C617        C  0.12373364  0.87558294  0.44078051     1.01200
C618        C  0.06391007  0.87234420  0.52589788     1.14200
C619        C  0.13129738  0.93564284  0.51928510     1.04900
O620        O  0.17696555  0.91001476  0.53036761    -0.94700
O621        O  0.17987865  0.89370328  0.59720675    -0.90400
O622        O  0.17638112  0.86548676  0.62182626    -0.83600
C623        C  0.18602216  0.87965853  0.61366951     1.11600
O624        O  0.08247232  0.91638508  0.62024795    -0.96700
Zr625      Zr  0.10723041  0.89392522  0.62302458     1.88900
O626        O  0.13717872  0.86350318  0.67837439    -0.73300
O627        O  0.15672654  0.92573995  0.61014181    -0.52600
O628        O  0.11653572  0.92350557  0.64744217    -0.97200
O629        O  0.07907252  0.88399778  0.65127733    -0.54500
O630        O  0.11668565  0.88696195  0.68136480    -0.73800
C631        C  0.12727918  0.87512262  0.69537935     0.98500
O632        O  0.16285438  0.83399535  0.64836989    -0.62600
O633        O  0.08971247  0.82453923  0.52900323    -0.57400
O634        O  0.13493699  0.82342642  0.61950602    -0.94100
O635        O  0.10648351  0.82074574  0.59591336    -0.92600
O636        O  0.13341542  0.82846466  0.48246322    -0.92900
O637        O  0.16613252  0.83222519  0.51579759    -0.91700
C638        C  0.12048475  0.81408140  0.61150446     1.17400
H639        H  0.10463633  0.85630451  0.49557985     0.33300
H640        H  0.16962410  0.86578282  0.56101959     0.44200
H641        H  0.10673609  0.85547460  0.64079601     0.37700
H642        H  0.11675790  0.92017611  0.57355911     0.34200
H643        H  0.16718931  0.87807015  0.47110146     0.26000
H644        H  0.16853356  0.93129538  0.60321714     0.31900
H645        H  0.12646822  0.92064359  0.66417197     0.37800
H646        H  0.13023388  0.81974520  0.50121614     0.32300
H647        H  0.10029969  0.81605023  0.52838559     0.31100
H648        H  0.06542418  0.83640971  0.59805824     0.32800
H649        H  0.08278724  0.87429248  0.66787528     0.31800
H650        H  0.16828049  0.83042555  0.54105261     0.35800
H651        H  0.17285640  0.83053776  0.63217196     0.28500
H652        H  0.09059580  0.91849883  0.46816672     0.32700
H653        H  0.08092278  0.92102904  0.64438252     0.35600
H654        H  0.08016631  0.81773129  0.54192782     0.28200
H655        H  0.16888573  0.84095665  0.66740626     0.41100
H656        H  0.18157168  0.92169282  0.54045663     0.31100
H657        H  0.17945646  0.86922903  0.50002017     0.38800
H658        H  0.07221377  0.87738630  0.63280189     0.30600
H659        H  0.14746384  0.93524835  0.60464206     0.30700
H660        H  0.08216154  0.92424280  0.50431978     0.30900
Zr661      Zr  0.39312311  0.89396236  0.23697692     2.17500
O662        O  0.41574922  0.91258941  0.26791089    -0.51400
O663        O  0.38545347  0.88864320  0.29806690    -0.74600
O664        O  0.38402358  0.92660473  0.24142114    -0.81400
O665        O  0.42942706  0.85739792  0.21356403    -0.83200
O666        O  0.35545655  0.92958777  0.21828592    -0.78800
O667        O  0.42580842  0.88532570  0.23961720    -0.90400
O668        O  0.36335720  0.86680246  0.30083213    -0.76400
O669        O  0.36082986  0.88920651  0.24016990    -0.85900
O670        O  0.38817516  0.86150989  0.24178981    -0.85600
O671        O  0.38071976  0.90655020  0.18372849    -0.72300
O672        O  0.40610407  0.88012470  0.18567978    -0.84500
Zr673      Zr  0.35556317  0.85600709  0.13852812     2.26400
Zr674      Zr  0.34831935  0.90123744  0.18716782     2.06300
Zr675      Zr  0.40016393  0.84788881  0.18979906     2.10000
Zr676      Zr  0.35599586  0.85684844  0.24311026     1.78800
O677        O  0.42541088  0.83511760  0.15613311    -0.93300
O678        O  0.32690671  0.86640842  0.26845755    -0.41100
O679        O  0.36782241  0.84285864  0.19131515    -0.77700
O680        O  0.34278597  0.86879195  0.19132707    -0.96400
O681        O  0.36096556  0.88826611  0.13498658    -0.89700
O682        O  0.38803177  0.85995190  0.13643058    -0.92500
C683        C  0.37432577  0.87829754  0.31482222     1.01200
C684        C  0.43564167  0.87142429  0.23015789     1.14200
C685        C  0.36959860  0.93606934  0.23405589     1.04900
O686        O  0.32263043  0.90819429  0.22540633    -0.94700
O687        O  0.31969134  0.89381568  0.15784096    -0.90400
O688        O  0.32295569  0.86514206  0.13459060    -0.83600
C689        C  0.31333617  0.87948221  0.14232614     1.11600
O690        O  0.41760167  0.91480142  0.14143635    -0.96700
Zr691      Zr  0.39337894  0.89215524  0.13342401     1.88900
O692        O  0.36265793  0.86318916  0.07746095    -0.73300
O693        O  0.34184784  0.92556163  0.14540904    -0.52600
O694        O  0.38780742  0.92096082  0.10305241    -0.97200
O695        O  0.42090427  0.87958675  0.10636488    -0.54500
O696        O  0.38355576  0.88618963  0.07515788    -0.73800
C697        C  0.37273591  0.87467481  0.06083201     0.98500
O698        O  0.33703070  0.83475623  0.10385440    -0.62600
O699        O  0.40521843  0.82504549  0.23527595    -0.57400
O700        O  0.36377566  0.82325570  0.13608664    -0.94100
O701        O  0.39214528  0.81974836  0.15968363    -0.92600
O702        O  0.36605415  0.82886764  0.27217548    -0.92900
O703        O  0.33252511  0.83308172  0.24232485    -0.91700
C704        C  0.37799219  0.81357062  0.14371748     1.17400
H705        H  0.39411748  0.85662101  0.26227859     0.33300
H706        H  0.32998972  0.86610617  0.19442927     0.44200
H707        H  0.39317014  0.85351266  0.11656750     0.37700
H708        H  0.38341186  0.91940886  0.18065876     0.34200
H709        H  0.32649911  0.86040480  0.29156982     0.26000
H710        H  0.33024328  0.93115065  0.15354749     0.31900
H711        H  0.37451145  0.92317142  0.10565682     0.37800
H712        H  0.36170019  0.83014558  0.29650424     0.32300
H713        H  0.40386668  0.81298297  0.22350154     0.31100
H714        H  0.42977347  0.82452238  0.17002450     0.32800
H715        H  0.41665620  0.87323079  0.08494567     0.31800
H716        H  0.33632565  0.82454295  0.22349468     0.35800
H717        H  0.32692964  0.83076410  0.11924554     0.28500
H718        H  0.40900490  0.91886864  0.28691920     0.32700
H719        H  0.42320934  0.91630794  0.11814286     0.35600
H720        H  0.41843590  0.82585333  0.24086450     0.28200
H721        H  0.33109168  0.84229888  0.08559378     0.41100
H722        H  0.31866380  0.92071651  0.21870564     0.31100
H723        H  0.32849664  0.87963793  0.27385207     0.38800
H724        H  0.42484658  0.86954366  0.12203240     0.30600
H725        H  0.35122911  0.93509427  0.14994483     0.30700
H726        H  0.41920869  0.92249651  0.25156078     0.30900
Zr727      Zr  0.39371951  0.89458383  0.73660051     2.17500
O728        O  0.41681198  0.91523577  0.76105748    -0.51400
O729        O  0.38752500  0.88765791  0.79816337    -0.74600
O730        O  0.38308124  0.92645119  0.74409084    -0.81400
O731        O  0.43008231  0.85807404  0.71492914    -0.83200
O732        O  0.35445605  0.92925394  0.72114985    -0.78800
O733        O  0.42629797  0.88609570  0.74057773    -0.90400
O734        O  0.36689612  0.86438066  0.80059850    -0.76400
O735        O  0.36160021  0.88889158  0.74073052    -0.85900
O736        O  0.39008256  0.86197390  0.73896742    -0.85600
O737        O  0.38030711  0.90742268  0.68442077    -0.72300
O738        O  0.40652509  0.88237141  0.68364812    -0.84500
Zr739      Zr  0.35653346  0.85645293  0.63799205     2.26400
Zr740      Zr  0.34817717  0.90112812  0.68862492     2.06300
Zr741      Zr  0.40204665  0.84991981  0.68545061     2.10000
Zr742      Zr  0.35807429  0.85634787  0.74227471     1.78800
O743        O  0.42640905  0.84544564  0.64295775    -0.93300
O744        O  0.33011369  0.86393982  0.77382476    -0.41100
O745        O  0.37004610  0.84367529  0.68956653    -0.77700
O746        O  0.34368268  0.86846562  0.69148985    -0.96400
O747        O  0.36053552  0.88900269  0.63555668    -0.89700
O748        O  0.38866786  0.86203012  0.63347480    -0.92500
C749        C  0.37745708  0.87618513  0.81491193     1.01200
C750        C  0.43608704  0.87205367  0.73187361     1.14200
C751        C  0.36848394  0.93571451  0.73733193     1.04900
O752        O  0.32241492  0.90700324  0.72731416    -0.94700
O753        O  0.32019377  0.89362019  0.65720145    -0.90400
O754        O  0.32426151  0.86544151  0.63229555    -0.83600
C755        C  0.31438783  0.87950639  0.64025192     1.11600
O756        O  0.41515189  0.91881561  0.64158641    -0.96700
Zr757      Zr  0.39262138  0.89454353  0.63239209     1.88900
O758        O  0.36175320  0.86448588  0.57674480    -0.73300
O759        O  0.34162703  0.92637633  0.64893171    -0.52600
O760        O  0.38298827  0.92299936  0.60439499    -0.97200
O761        O  0.42149150  0.88681377  0.60412118    -0.54500
O762        O  0.38338404  0.88686653  0.57414106    -0.73800
C763        C  0.37195057  0.87582580  0.56001246     0.98500
O764        O  0.33773121  0.83282074  0.61012159    -0.62600
O765        O  0.41162539  0.82454487  0.72257051    -0.57400
O766        O  0.36584850  0.82382654  0.63483659    -0.94100
O767        O  0.39441070  0.82102160  0.65784023    -0.92600
O768        O  0.36917086  0.82729589  0.76544996    -0.92900
O769        O  0.33446632  0.83277263  0.73968438    -0.91700
C770        C  0.38023604  0.81438679  0.64265436     1.17400
H771        H  0.39644120  0.85688154  0.75832367     0.33300
H772        H  0.33086661  0.86546935  0.69410795     0.44200
H773        H  0.39373161  0.85612049  0.61297181     0.37700
H774        H  0.38252738  0.92045850  0.68229084     0.34200
H775        H  0.33029216  0.85593420  0.79465082     0.26000
H776        H  0.33124876  0.93303287  0.65976310     0.31900
H777        H  0.37022421  0.92073714  0.59679178     0.37800
H778        H  0.36351612  0.82637580  0.78881770     0.32300
H779        H  0.40020759  0.81777070  0.72778726     0.31100
H780        H  0.43093025  0.83280598  0.64713698     0.32800
H781        H  0.41878991  0.87595518  0.58934002     0.31800
H782        H  0.33185754  0.83121084  0.71449702     0.35800
H783        H  0.32745131  0.83048884  0.62631785     0.28500
H784        H  0.41123466  0.92088358  0.78204622     0.32700
H785        H  0.41835826  0.92332135  0.61805791     0.35600
H786        H  0.41866236  0.81618044  0.70717860     0.28200
H787        H  0.33208914  0.83874836  0.58953139     0.41100
H788        H  0.31599305  0.89505614  0.72897231     0.31100
H789        H  0.33218688  0.87647812  0.78320401     0.38800
H790        H  0.42931684  0.88199654  0.62312529     0.30600
H791        H  0.35215695  0.93484789  0.65139481     0.30700
H792        H  0.41810164  0.92540862  0.74413975     0.30900
Zr793      Zr  0.35549181  0.14333099  0.36576669     2.17500
O794        O  0.33684113  0.16527847  0.39862320    -0.51400
O795        O  0.36149872  0.13553405  0.42644859    -0.74600
O796        O  0.32327512  0.13419590  0.36990519    -0.81400
O797        O  0.39334074  0.17886831  0.34912211    -0.83200
O798        O  0.31980029  0.10570221  0.34595131    -0.78800
O799        O  0.36473363  0.17570951  0.37153191    -0.90400
O800        O  0.38276756  0.11283140  0.42858852    -0.76400
O801        O  0.35978063  0.11077990  0.36736557    -0.85900
O802        O  0.38764880  0.13794619  0.36974043    -0.85600
O803        O  0.34242993  0.13177423  0.31208447    -0.72300
O804        O  0.36847155  0.15707447  0.31461993    -0.84500
Zr805      Zr  0.39260904  0.10697535  0.26565031     2.26400
Zr806      Zr  0.34756453  0.09910156  0.31350740     2.06300
Zr807      Zr  0.40062981  0.15083263  0.31812713     2.10000
Zr808      Zr  0.39191331  0.10553694  0.37005774     1.78800
O809        O  0.40940796  0.17694268  0.28232515    -0.93300
O810        O  0.38230610  0.07601545  0.39395797    -0.41100
O811        O  0.40578776  0.11830849  0.31904853    -0.77700
O812        O  0.37989898  0.09317760  0.31722196    -0.96400
O813        O  0.36041663  0.11225265  0.26186386    -0.89700
O814        O  0.38820185  0.13944402  0.26451398    -0.92500
C815        C  0.37173219  0.12416770  0.44294828     1.01200
C816        C  0.37923797  0.18514827  0.36504953     1.14200
C817        C  0.31369701  0.11991630  0.36212970     1.04900
O818        O  0.34017495  0.07264216  0.34955185    -0.94700
O819        O  0.35423626  0.07106804  0.28082498    -0.90400
O820        O  0.38252563  0.07500886  0.25729335    -0.83600
C821        C  0.36832455  0.06520492  0.26410837     1.11600
O822        O  0.33291717  0.16887031  0.26571770    -0.96700
Zr823      Zr  0.35608389  0.14474444  0.26164494     1.88900
O824        O  0.38611227  0.11475717  0.20503443    -0.73300
O825        O  0.32189974  0.09509440  0.27349636    -0.52600
O826        O  0.32686811  0.13625970  0.23515274    -0.97200
O827        O  0.36612080  0.17360700  0.23589507    -0.54500
O828        O  0.36340577  0.13605499  0.20285486    -0.73800
C829        C  0.37489916  0.12516438  0.18848939     0.98500
O830        O  0.41449923  0.08785061  0.23390702    -0.62600
O831        O  0.42491699  0.15590001  0.36067194    -0.57400
O832        O  0.42514960  0.11554356  0.26255173    -0.94100
O833        O  0.42842832  0.14407075  0.28616458    -0.92600
O834        O  0.42102888  0.11431673  0.39625750    -0.92900
O835        O  0.41491704  0.08131278  0.37145873    -0.91700
C836        C  0.43466423  0.12998041  0.26981596     1.17400
H837        H  0.39276953  0.14368446  0.39028997     0.33300
H838        H  0.38251759  0.08019028  0.31859441     0.44200
H839        H  0.39451463  0.14478462  0.24496932     0.37700
H840        H  0.32964195  0.13461094  0.30942494     0.34200
H841        H  0.37227113  0.07898538  0.41034861     0.26000
H842        H  0.32748635  0.09137799  0.25103666     0.31900
H843        H  0.32938677  0.12486787  0.22175917     0.37800
H844        H  0.41778610  0.12196939  0.41675214     0.32300
H845        H  0.43287311  0.14492236  0.35869831     0.31100
H846        H  0.42109444  0.18131791  0.29251913     0.32800
H847        H  0.37810481  0.17089526  0.22502660     0.31800
H848        H  0.42011880  0.08114590  0.34764076     0.35800
H849        H  0.41741864  0.07742527  0.24949654     0.28500
H850        H  0.33205187  0.15840991  0.41889037     0.32700
H851        H  0.32943875  0.17175790  0.24136571     0.35600
H852        H  0.43230489  0.16603889  0.35086899     0.28200
H853        H  0.40764014  0.08236348  0.21413057     0.41100
H854        H  0.33953322  0.07754895  0.37365348     0.31100
H855        H  0.37619290  0.06940009  0.37456946     0.38800
H856        H  0.36910980  0.18159635  0.25609062     0.30600
H857        H  0.31557579  0.08390614  0.28179069     0.30700
H858        H  0.32597736  0.16796499  0.38400768     0.30900
Zr859      Zr  0.39260458  0.10651847  0.76552985     2.17500
O860        O  0.41544365  0.08770500  0.73560589    -0.51400
O861        O  0.38667879  0.11402634  0.70467446    -0.74600
O862        O  0.38314113  0.07437201  0.75776250    -0.81400
O863        O  0.42848367  0.14273834  0.78843072    -0.83200
O864        O  0.35452777  0.07086882  0.78002673    -0.78800
O865        O  0.42523373  0.11475354  0.76264500    -0.90400
O866        O  0.36471036  0.13606718  0.70201737    -0.76400
O867        O  0.36035891  0.11184456  0.76051212    -0.85900
O868        O  0.38807184  0.13902947  0.76332952    -0.85600
O869        O  0.37952536  0.09296127  0.81721074    -0.72300
O870        O  0.40526144  0.11834146  0.81889839    -0.84500
Zr871      Zr  0.35461286  0.14343193  0.86428753     2.26400
Zr872      Zr  0.34727135  0.09887590  0.81209131     2.06300
Zr873      Zr  0.40013042  0.15071860  0.81681246     2.10000
Zr874      Zr  0.35596162  0.14436822  0.76015262     1.78800
O875        O  0.42492086  0.15772265  0.85725089    -0.93300
O876        O  0.32670121  0.13669592  0.73305029    -0.41100
O877        O  0.36802298  0.15671575  0.81309153    -0.77700
O878        O  0.34202756  0.13148375  0.81050327    -0.96400
O879        O  0.35913437  0.11089438  0.86589559    -0.89700
O880        O  0.38692608  0.13827284  0.86858950    -0.92500
C881        C  0.37606952  0.12496313  0.68795826     1.01200
C882        C  0.43478048  0.12891644  0.77146331     1.14200
C883        C  0.36881573  0.06473190  0.76437645     1.04900
O884        O  0.32250732  0.09264746  0.77104603    -0.94700
O885        O  0.31904821  0.10551601  0.84274540    -0.90400
O886        O  0.32279042  0.13259399  0.87184728    -0.83600
C887        C  0.31306713  0.11873766  0.86182947     1.11600
O888        O  0.41383127  0.08112705  0.86658508    -0.96700
Zr889      Zr  0.39128787  0.10584713  0.86985758     1.88900
O890        O  0.36099650  0.13662383  0.92577967    -0.73300
O891        O  0.33885296  0.07349204  0.85002600    -0.52600
O892        O  0.38054835  0.07744731  0.89639636    -0.97200
O893        O  0.42067514  0.11360731  0.89635894    -0.54500
O894        O  0.38269959  0.11423374  0.92825280    -0.73800
C895        C  0.37162486  0.12559845  0.94251749     0.98500
O896        O  0.33341495  0.16718244  0.88437550    -0.62600
O897        O  0.40931945  0.17477638  0.77646990    -0.57400
O898        O  0.36411989  0.17587905  0.87100745    -0.94100
O899        O  0.39187266  0.17921388  0.84496900    -0.92600
O900        O  0.36545495  0.17349007  0.73463112    -0.92900
O901        O  0.33336633  0.16898611  0.76373918    -0.91700
C902        C  0.37817736  0.18551140  0.86209259     1.17400
H903        H  0.39434632  0.14435961  0.74390500     0.33300
H904        H  0.32918910  0.13420168  0.80839134     0.44200
H905        H  0.39206954  0.14419891  0.88899438     0.37700
H906        H  0.38204105  0.08006207  0.81929467     0.34200
H907        H  0.32851507  0.13866451  0.70776470     0.26000
H908        H  0.32908770  0.06686698  0.83717151     0.31900
H909        H  0.36807210  0.08029717  0.90488995     0.37800
H910        H  0.36926799  0.17057956  0.71047560     0.32300
H911        H  0.39813422  0.18219768  0.77265645     0.31100
H912        H  0.43199463  0.16757902  0.84573764     0.32800
H913        H  0.41773571  0.11891525  0.91949180     0.31800
H914        H  0.32712282  0.16708530  0.78632892     0.35800
H915        H  0.32353827  0.16767366  0.86662036     0.28500
H916        H  0.40926146  0.08276293  0.71455871     0.32700
H917        H  0.41681552  0.07796749  0.89104687     0.35600
H918        H  0.41753352  0.18287767  0.79018910     0.28200
H919        H  0.32755600  0.16230864  0.90564947     0.41100
H920        H  0.31313965  0.08599650  0.78468340     0.31100
H921        H  0.32559851  0.12320847  0.73545148     0.38800
H922        H  0.42526518  0.12411325  0.88263351     0.30600
H923        H  0.34948175  0.06504251  0.84948473     0.30700
H924        H  0.41763305  0.07690039  0.75069674     0.30900
Zr925      Zr  0.10605826  0.10584272  0.48492447     2.17500
O926        O  0.08285054  0.08728574  0.51395671    -0.51400
O927        O  0.11238868  0.11236070  0.54639032    -0.74600
O928        O  0.11572916  0.07357185  0.49167063    -0.81400
O929        O  0.07082391  0.14345359  0.46435428    -0.83200
O930        O  0.14482219  0.07085778  0.47133331    -0.78800
O931        O  0.07350212  0.11450121  0.48598901    -0.90400
O932        O  0.13593668  0.13259678  0.54998106    -0.76400
O933        O  0.13835721  0.11041964  0.48930300    -0.85900
O934        O  0.11100801  0.13825796  0.48955758    -0.85600
O935        O  0.11867517  0.09260649  0.43232239    -0.72300
O936        O  0.09354152  0.11924528  0.43284714    -0.84500
Zr937      Zr  0.14426614  0.14319516  0.38830151     2.26400
Zr938      Zr  0.15105578  0.09796900  0.43668942     2.06300
Zr939      Zr  0.09945484  0.15150639  0.43705039     2.10000
Zr940      Zr  0.14315641  0.14279401  0.49255017     1.78800
O941        O  0.07413477  0.16220729  0.40102711    -0.93300
O942        O  0.17241589  0.13498438  0.51928320    -0.41100
O943        O  0.13166115  0.15651278  0.44047644    -0.77700
O944        O  0.15685340  0.13041501  0.44127583    -0.96400
O945        O  0.13901313  0.11083422  0.38398524    -0.89700
O946        O  0.11191083  0.13896795  0.38445729    -0.92500
C947        C  0.12400090  0.12208286  0.56359633     1.01200
C948        C  0.06420408  0.12907878  0.47887088     1.14200
C949        C  0.13057286  0.06439434  0.48635606     1.04900
O950        O  0.17796573  0.09134141  0.47211362    -0.94700
O951        O  0.17893972  0.10454561  0.40478097    -0.90400
O952        O  0.17628004  0.13339851  0.38268393    -0.83600
C953        C  0.18549585  0.11877512  0.38957746     1.11600
O954        O  0.08178639  0.08462888  0.38740434    -0.96700
Zr955      Zr  0.10666601  0.10670018  0.38108537     1.88900
O956        O  0.13843135  0.13591976  0.32677262    -0.73300
O957        O  0.15619682  0.07110625  0.39965084    -0.52600
O958        O  0.11522655  0.07772963  0.35327138    -0.97200
O959        O  0.07889851  0.11683873  0.35135214    -0.54500
O960        O  0.11636501  0.11401500  0.32320107    -0.73800
C961        C  0.12793342  0.12495944  0.30955198     0.98500
O962        O  0.16385260  0.16662602  0.36248220    -0.62600
O963        O  0.09475933  0.17594993  0.47975102    -0.57400
O964        O  0.13571295  0.17575173  0.38252763    -0.94100
O965        O  0.10727764  0.17914565  0.40559660    -0.92600
O966        O  0.13208659  0.16985918  0.52366604    -0.92900
O967        O  0.16446821  0.16849007  0.49102234    -0.91700
C968        C  0.12129221  0.18530131  0.38932786     1.17400
H969        H  0.10484465  0.14334109  0.50965955     0.33300
H970        H  0.16976257  0.13287222  0.44406870     0.44200
H971        H  0.10696584  0.14526526  0.36442548     0.37700
H972        H  0.11603359  0.07966205  0.42995619     0.34200
H973        H  0.17269519  0.14211292  0.54134321     0.26000
H974        H  0.16518029  0.06352069  0.41258598     0.31900
H975        H  0.10949392  0.07811604  0.32985640     0.37800
H976        H  0.13965153  0.17051871  0.54509828     0.32300
H977        H  0.10611657  0.18334164  0.47886530     0.31100
H978        H  0.06796885  0.17175138  0.41529854     0.32800
H979        H  0.08278354  0.12690863  0.33574730     0.31800
H980        H  0.16556111  0.17154072  0.46597724     0.35800
H981        H  0.17412595  0.16844770  0.37905106     0.28500
H982        H  0.08899776  0.08187253  0.53453987     0.32700
H983        H  0.07907565  0.08012572  0.36354369     0.35600
H984        H  0.08529979  0.18396909  0.46922887     0.28200
H985        H  0.16939436  0.16082161  0.34161899     0.41100
H986        H  0.18070450  0.07819956  0.46764110     0.31100
H987        H  0.17102207  0.12204249  0.52675404     0.38800
H988        H  0.07162984  0.12304840  0.36972511     0.30600
H989        H  0.14465646  0.06400674  0.40072590     0.30700
H990        H  0.08039472  0.07676083  0.49814556     0.30900
Zr991      Zr  0.10554140  0.10531945  0.98598785     2.17500
O992        O  0.08289656  0.08645493  0.01589427    -0.51400
O993        O  0.11365186  0.11127228  0.04716399    -0.74600
O994        O  0.11502220  0.07293982  0.99120547    -0.81400
O995        O  0.06931557  0.14211183  0.96533584    -0.83200
O996        O  0.14352311  0.06990240  0.96809399    -0.78800
O997        O  0.07306674  0.11400661  0.99014563    -0.90400
O998        O  0.13363008  0.13510239  0.04987820    -0.76400
O999        O  0.13768559  0.11080194  0.98942951    -0.85900
O1000       O  0.10960993  0.13785676  0.98933706    -0.85600
O1001       O  0.11790100  0.09243079  0.93292364    -0.72300
O1002       O  0.09246207  0.11778843  0.93348081    -0.84500
Zr1003     Zr  0.14240216  0.14345138  0.88743376     2.26400
Zr1004     Zr  0.15018339  0.09827491  0.93664144     2.06300
Zr1005     Zr  0.09739683  0.15026327  0.93661698     2.10000
Zr1006     Zr  0.14162902  0.14336902  0.99172040     1.78800
O1007       O  0.07233129  0.15751186  0.89700912    -0.93300
O1008       O  0.17014666  0.13463815  0.02032279    -0.41100
O1009       O  0.12944669  0.15643107  0.93962116    -0.77700
O1010       O  0.15525312  0.13094772  0.94045827    -0.96400
O1011       O  0.13800396  0.11098060  0.88383118    -0.89700
O1012       O  0.11017323  0.13824969  0.88392703    -0.92500
C1013       C  0.12372051  0.12280631  0.06397257     1.01200
C1014       C  0.06333159  0.12813114  0.98196079     1.14200
C1015       C  0.12942705  0.06344880  0.98387422     1.04900
O1016       O  0.17654775  0.09187543  0.97360908    -0.94700
O1017       O  0.17833124  0.10528349  0.90573734    -0.90400
O1018       O  0.17469230  0.13380550  0.88236214    -0.83600
C1019       C  0.18441596  0.11955813  0.88995868     1.11600
O1020       O  0.08443435  0.08017086  0.88114699    -0.96700
Zr1021     Zr  0.10584862  0.10585451  0.88120515     1.88900
O1022       O  0.13572305  0.13615519  0.82608664    -0.73300
O1023       O  0.15537082  0.07278409  0.89643274    -0.52600
O1024       O  0.11854226  0.07871430  0.85251814    -0.97200
O1025       O  0.07615237  0.11339980  0.85582387    -0.54500
O1026       O  0.11268173  0.11527187  0.82300971    -0.73800
C1027       C  0.12436068  0.12597817  0.80907948     0.98500
O1028       O  0.16185466  0.16628566  0.85932564    -0.62600
O1029       O  0.09009246  0.17436140  0.97869134    -0.57400
O1030       O  0.13290346  0.17606059  0.88404988    -0.94100
O1031       O  0.10454449  0.17885931  0.90791622    -0.92600
O1032       O  0.13215313  0.17199921  0.01966197    -0.92900
O1033       O  0.16399155  0.16810152  0.98822853    -0.91700
C1034       C  0.11846910  0.18544280  0.89198164     1.17400
H1035       H  0.10336059  0.14290093  0.00936540     0.33300
H1036       H  0.16806764  0.13370794  0.94324851     0.44200
H1037       H  0.10487663  0.14440351  0.86402223     0.37700
H1038       H  0.11536553  0.07951264  0.93024674     0.34200
H1039       H  0.17131446  0.14327553  0.04024304     0.26000
H1040       H  0.16513531  0.06538596  0.90756550     0.31900
H1041       H  0.12861220  0.08332470  0.83769793     0.37800
H1042       H  0.12137910  0.16879396  0.03400754     0.32300
H1043       H  0.10132993  0.18191150  0.98029925     0.31100
H1044       H  0.06429406  0.16591620  0.91042358     0.32800
H1045       H  0.07822187  0.12473470  0.84218677     0.31800
H1046       H  0.16477443  0.17093709  0.96304418     0.35800
H1047       H  0.17241684  0.16824600  0.87516266     0.28500
H1048       H  0.08943098  0.08079518  0.03580071     0.32700
H1049       H  0.08231372  0.07718073  0.85623463     0.35600
H1050       H  0.08109936  0.18232518  0.96665339     0.28200
H1051       H  0.16699510  0.16010525  0.83846992     0.41100
H1052       H  0.17148720  0.09081434  0.99744451     0.31100
H1053       H  0.16752787  0.12261935  0.03127073     0.38800
H1054       H  0.06857925  0.11745590  0.87581371     0.30600
H1055       H  0.14426173  0.06506225  0.89822675     0.30700
H1056       H  0.08010176  0.07612021  0.99983685     0.30900
Zr1057     Zr  0.85573971  0.35593442  0.38459492     2.17500
O1058       O  0.83690582  0.33521403  0.34935621    -0.51400
O1059       O  0.86206139  0.36431305  0.32388423    -0.74600
O1060       O  0.82329798  0.36561739  0.38137915    -0.81400
O1061       O  0.89237594  0.31925326  0.40438502    -0.83200
O1062       O  0.82059070  0.39430694  0.40472023    -0.78800
O1063       O  0.86375016  0.32285555  0.38185877    -0.90400
O1064       O  0.88438742  0.38593476  0.32187537    -0.76400
O1065       O  0.86088646  0.38837704  0.38302366    -0.85900
O1066       O  0.88818211  0.36030592  0.38149597    -0.85600
O1067       O  0.84301843  0.36779750  0.43829060    -0.72300
O1068       O  0.86857630  0.34220242  0.43614626    -0.84500
Zr1069     Zr  0.89366301  0.39190017  0.48515556     2.26400
Zr1070     Zr  0.84873377  0.40032137  0.43661624     2.06300
Zr1071     Zr  0.90089575  0.34740803  0.43365444     2.10000
Zr1072     Zr  0.89327128  0.39259942  0.38086279     1.78800
O1073       O  0.90721757  0.32237649  0.47390671    -0.93300
O1074       O  0.88560061  0.42237235  0.35572612    -0.41100
O1075       O  0.90647003  0.37972531  0.43222522    -0.77700
O1076       O  0.88111786  0.40552228  0.43307561    -0.96400
O1077       O  0.86136971  0.38725830  0.48875952    -0.89700
O1078       O  0.88879709  0.35942464  0.48684769    -0.92500
C1079       C  0.87270069  0.37531188  0.30738159     1.01200
C1080       C  0.87799154  0.31304522  0.38921908     1.14200
C1081       C  0.81400120  0.38018836  0.38896246     1.04900
O1082       O  0.84401768  0.42801385  0.40211364    -0.94700
O1083       O  0.85557023  0.42777747  0.47013329    -0.90400
O1084       O  0.88395570  0.42404064  0.49349516    -0.83600
C1085       C  0.86964744  0.43374003  0.48662814     1.11600
O1086       O  0.83127805  0.33293002  0.48696401    -0.96700
Zr1087     Zr  0.85652767  0.35485536  0.48897543     1.88900
O1088       O  0.88689872  0.38429662  0.54592328    -0.73300
O1089       O  0.82241305  0.40661712  0.47379634    -0.52600
O1090       O  0.82905668  0.36773106  0.51557112    -0.97200
O1091       O  0.86273559  0.32464266  0.51379469    -0.54500
O1092       O  0.86608444  0.36113270  0.54748656    -0.73800
C1093       C  0.87678893  0.37269108  0.56213707     0.98500
O1094       O  0.91696282  0.41140842  0.51212929    -0.62600
O1095       O  0.92582431  0.33887559  0.39459182    -0.57400
O1096       O  0.92610021  0.38302915  0.48878169    -0.94100
O1097       O  0.92948647  0.35508296  0.46273975    -0.92600
O1098       O  0.92184933  0.38230912  0.35462039    -0.92900
O1099       O  0.91748975  0.41546126  0.38574682    -0.91700
C1100       C  0.93573129  0.36891975  0.47990822     1.17400
H1101       H  0.89327377  0.35438568  0.36110051     0.33300
H1102       H  0.88378672  0.41844582  0.43144526     0.44200
H1103       H  0.89495829  0.35391733  0.50651947     0.37700
H1104       H  0.83017734  0.36521114  0.44119475     0.34200
H1105       H  0.88999172  0.42175509  0.33133827     0.26000
H1106       H  0.82717240  0.40575172  0.49792559     0.31900
H1107       H  0.82912733  0.36318386  0.53986601     0.37800
H1108       H  0.92189184  0.38781988  0.33105860     0.32300
H1109       H  0.93433341  0.34946043  0.39506514     0.31100
H1110       H  0.91925219  0.31746379  0.46651659     0.32800
H1111       H  0.87428649  0.32609739  0.52705599     0.31800
H1112       H  0.92036785  0.41596816  0.41098368     0.35800
H1113       H  0.91903737  0.42162144  0.49558219     0.28500
H1114       H  0.83213345  0.34277491  0.32992519     0.32700
H1115       H  0.82741470  0.33120226  0.51147819     0.35600
H1116       H  0.93246365  0.32895128  0.40692836     0.28200
H1117       H  0.91112649  0.41715408  0.53275790     0.41100
H1118       H  0.83277412  0.42584123  0.38827063     0.31100
H1119       H  0.87208909  0.42231807  0.35370529     0.38800
H1120       H  0.86608526  0.31680640  0.49359719     0.30600
H1121       H  0.81979800  0.41986798  0.47052338     0.30700
H1122       H  0.82604001  0.33225446  0.36366371     0.30900
Zr1123     Zr  0.85565480  0.35763437  0.88464491     2.17500
O1124       O  0.83713007  0.33423975  0.85553475    -0.51400
O1125       O  0.86225930  0.36415217  0.82346927    -0.74600
O1126       O  0.82353465  0.36766650  0.87862637    -0.81400
O1127       O  0.89208907  0.32127839  0.90752983    -0.83200
O1128       O  0.82058258  0.39659561  0.90091151    -0.78800
O1129       O  0.86387316  0.32470077  0.88320173    -0.90400
O1130       O  0.88253251  0.38769829  0.82150843    -0.76400
O1131       O  0.86013624  0.39017527  0.88212773    -0.85900
O1132       O  0.88792898  0.36259946  0.88089785    -0.85600
O1133       O  0.84269055  0.36980749  0.93774510    -0.72300
O1134       O  0.86881699  0.34479312  0.93642594    -0.84500
Zr1135     Zr  0.89320742  0.39522883  0.98391238     2.26400
Zr1136     Zr  0.84794925  0.40234761  0.93556245     2.06300
Zr1137     Zr  0.90093912  0.35044266  0.93323576     2.10000
Zr1138     Zr  0.89236140  0.39498270  0.87932878     1.78800
O1139       O  0.90993082  0.32432392  0.96892280    -0.93300
O1140       O  0.88375257  0.42456051  0.85403427    -0.41100
O1141       O  0.90613265  0.38289470  0.93110305    -0.77700
O1142       O  0.88028620  0.40815426  0.93131788    -0.96400
O1143       O  0.86100708  0.38985343  0.98763511    -0.89700
O1144       O  0.88876120  0.36268910  0.98640903    -0.92500
C1145       C  0.87217115  0.37581586  0.80705863     1.01200
C1146       C  0.87786987  0.31490491  0.89194950     1.14200
C1147       C  0.81421203  0.38234835  0.88516421     1.04900
O1148       O  0.83838547  0.42960901  0.90367885    -0.94700
O1149       O  0.85518373  0.43072215  0.96643014    -0.90400
O1150       O  0.88394792  0.42779959  0.98866941    -0.83600
C1151       C  0.86947250  0.43724893  0.98158747     1.11600
O1152       O  0.83333654  0.33340613  0.98433585    -0.96700
Zr1153     Zr  0.85657588  0.35737488  0.98882604     1.88900
O1154       O  0.88565305  0.38845912  0.04490166    -0.73300
O1155       O  0.82296359  0.40427963  0.97748447    -0.52600
O1156       O  0.82768186  0.36512424  0.01711544    -0.97200
O1157       O  0.86720582  0.32859891  0.01435352    -0.54500
O1158       O  0.86359178  0.36653414  0.04730599    -0.73800
C1159       C  0.87450942  0.37801900  0.06156408     0.98500
O1160       O  0.91468372  0.41386524  0.01782532    -0.62600
O1161       O  0.92513898  0.34569743  0.89033631    -0.57400
O1162       O  0.92612520  0.38718157  0.98461304    -0.94100
O1163       O  0.92873147  0.35783939  0.96461235    -0.92600
O1164       O  0.91996537  0.38502017  0.84897764    -0.92900
O1165       O  0.91726033  0.41721339  0.87911061    -0.91700
C1166       C  0.93546556  0.37247321  0.97823045     1.17400
H1167       H  0.89311667  0.35651622  0.86038618     0.33300
H1168       H  0.88288454  0.42107047  0.92872674     0.44200
H1169       H  0.89500487  0.35747638  0.00625219     0.37700
H1170       H  0.82978911  0.36710274  0.93978216     0.34200
H1171       H  0.87425629  0.42167981  0.83639042     0.26000
H1172       H  0.82894887  0.40590455  0.00048123     0.31900
H1173       H  0.81879481  0.36713020  0.99797699     0.37800
H1174       H  0.91740031  0.38675611  0.82383664     0.32300
H1175       H  0.93658872  0.34987075  0.90170785     0.31100
H1176       H  0.92204210  0.32055206  0.95980294     0.32800
H1177       H  0.87580789  0.33222800  0.03313040     0.31800
H1178       H  0.91697927  0.42287366  0.90263039     0.35800
H1179       H  0.91812206  0.42429605  0.00266532     0.28500
H1180       H  0.83167375  0.34038171  0.83499523     0.32700
H1181       H  0.83149669  0.32886444  0.00838457     0.35600
H1182       H  0.92649522  0.33218079  0.88850588     0.28200
H1183       H  0.90742074  0.41943475  0.03692982     0.41100
H1184       H  0.82739329  0.43410072  0.91618607     0.31100
H1185       H  0.87704164  0.43127793  0.87251580     0.38800
H1186       H  0.87504742  0.32294616  0.99620757     0.30600
H1187       H  0.81706281  0.41628590  0.97283238     0.30700
H1188       H  0.82671097  0.33186142  0.87136709     0.30900
Zr1189     Zr  0.89288267  0.60691332  0.01338833     2.17500
O1190       O  0.91517858  0.58706635  0.98430033    -0.51400
O1191       O  0.88582932  0.61470475  0.95307423    -0.74600
O1192       O  0.88206934  0.57541326  0.00392709    -0.81400
O1193       O  0.92938497  0.64254641  0.03590450    -0.83200
O1194       O  0.85350004  0.57214911  0.02642670    -0.78800
O1195       O  0.92557781  0.61454604  0.01023772    -0.90400
O1196       O  0.86506457  0.63793836  0.95195360    -0.76400
O1197       O  0.86069531  0.61222035  0.01100396    -0.85900
O1198       O  0.88868377  0.63948882  0.01197079    -0.85600
O1199       O  0.88075196  0.59301233  0.06533853    -0.72300
O1200       O  0.90630066  0.61876541  0.06595241    -0.84500
Zr1201     Zr  0.85671370  0.64309794  0.11498397     2.26400
Zr1202     Zr  0.84844200  0.59898737  0.06310745     2.06300
Zr1203     Zr  0.90131364  0.65118766  0.06528051     2.10000
Zr1204     Zr  0.85653814  0.64471939  0.01079429     1.78800
O1205       O  0.92604376  0.65621242  0.10698439    -0.93300
O1206       O  0.82799749  0.63598652  0.98211613    -0.41100
O1207       O  0.86910507  0.65685161  0.06343733    -0.77700
O1208       O  0.84320081  0.63162623  0.06158538    -0.96400
O1209       O  0.86133969  0.61062099  0.11629038    -0.89700
O1210       O  0.88903274  0.63816709  0.11737019    -0.92500
C1211       C  0.87570655  0.62640954  0.93712954     1.01200
C1212       C  0.93539883  0.62851371  0.01906339     1.14200
C1213       C  0.86746227  0.56609049  0.00968426     1.04900
O1214       O  0.82147345  0.59262140  0.02766960    -0.94700
O1215       O  0.82099160  0.60535106  0.09672993    -0.90400
O1216       O  0.82465381  0.63379500  0.12062302    -0.83600
C1217       C  0.81502065  0.61950880  0.11327238     1.11600
O1218       O  0.91800842  0.58306864  0.11022123    -0.96700
Zr1219     Zr  0.89360409  0.60568358  0.11736421     1.88900
O1220       O  0.86363603  0.63471414  0.17544707    -0.73300
O1221       O  0.84455729  0.57224168  0.10040798    -0.52600
O1222       O  0.88467640  0.57579252  0.14013802    -0.97200
O1223       O  0.92210908  0.61419831  0.14646739    -0.54500
O1224       O  0.88489011  0.61191231  0.17647527    -0.73800
C1225       C  0.87393497  0.62313006  0.19144555     0.98500
O1226       O  0.83798985  0.66524172  0.14711319    -0.62600
O1227       O  0.91064362  0.67705020  0.02914471    -0.57400
O1228       O  0.86467130  0.67587154  0.11950578    -0.94100
O1229       O  0.89236929  0.67968679  0.09361216    -0.92600
O1230       O  0.86627088  0.67481327  0.99027875    -0.92900
O1231       O  0.83302835  0.66846932  0.01263222    -0.91700
C1232       C  0.87853525  0.68574140  0.11077125     1.17400
H1233       H  0.89474198  0.64490172  0.99208979     0.33300
H1234       H  0.83035690  0.63438879  0.05946961     0.44200
H1235       H  0.89428266  0.64396597  0.13774135     0.37700
H1236       H  0.88320203  0.58000687  0.06631817     0.34200
H1237       H  0.82793304  0.64284552  0.95987067     0.26000
H1238       H  0.83405574  0.56552167  0.09012803     0.31900
H1239       H  0.87351330  0.57820212  0.15402477     0.37800
H1240       H  0.86745008  0.67350999  0.96467810     0.32300
H1241       H  0.92248751  0.68108022  0.03916659     0.31100
H1242       H  0.92378352  0.66853714  0.11715577     0.32800
H1243       H  0.91893225  0.62457073  0.16212799     0.31800
H1244       H  0.82899965  0.66879040  0.03726113     0.35800
H1245       H  0.82757562  0.66831833  0.13158953     0.28500
H1246       H  0.90910572  0.58258203  0.96277921     0.32700
H1247       H  0.92028324  0.57800667  0.13377121     0.35600
H1248       H  0.91387180  0.67166197  0.00620020     0.28200
H1249       H  0.83252567  0.65834456  0.16670342     0.41100
H1250       H  0.81556195  0.60474570  0.02435800     0.31100
H1251       H  0.82981058  0.62300029  0.97503670     0.38800
H1252       H  0.92967371  0.61980476  0.12795373     0.30600
H1253       H  0.85527717  0.56430992  0.09546982     0.30700
H1254       H  0.91656362  0.57606889  0.99924468     0.30900
Zr1255     Zr  0.85643134  0.64280092  0.61508998     2.17500
O1256       O  0.83668600  0.66446555  0.64625932    -0.51400
O1257       O  0.86466304  0.63678642  0.67578599    -0.74600
O1258       O  0.82435916  0.63300111  0.62182146    -0.81400
O1259       O  0.89258815  0.67863049  0.59202832    -0.83200
O1260       O  0.82034137  0.60442443  0.59879638    -0.78800
O1261       O  0.86467075  0.67569067  0.61743121    -0.90400
O1262       O  0.88518549  0.61333936  0.67791102    -0.76400
O1263       O  0.86140389  0.61037005  0.61924892    -0.85900
O1264       O  0.88883041  0.63809384  0.61688307    -0.85600
O1265       O  0.84290562  0.62980176  0.56312147    -0.72300
O1266       O  0.86815750  0.65546382  0.56181011    -0.84500
Zr1267     Zr  0.89230897  0.60419226  0.51523807     2.26400
Zr1268     Zr  0.84828968  0.59728957  0.56747315     2.06300
Zr1269     Zr  0.90042250  0.64997854  0.56329914     2.10000
Zr1270     Zr  0.89375071  0.60575056  0.61945024     1.78800
O1271       O  0.90704832  0.67517256  0.52370385    -0.93300
O1272       O  0.88678538  0.57624282  0.64624650    -0.41100
O1273       O  0.90583480  0.61764301  0.56650098    -0.77700
O1274       O  0.88066635  0.59172255  0.56913370    -0.96400
O1275       O  0.86000737  0.60907501  0.51357523    -0.89700
O1276       O  0.88769503  0.63665744  0.51147019    -0.92500
C1277       C  0.87488165  0.62535953  0.69226157     1.01200
C1278       C  0.87883413  0.68517747  0.60871846     1.14200
C1279       C  0.81447602  0.61882473  0.61466551     1.04900
O1280       O  0.84382136  0.57221887  0.60843711    -0.94700
O1281       O  0.85451990  0.56878433  0.53689070    -0.90400
O1282       O  0.88236323  0.57187555  0.51110189    -0.83600
C1283       C  0.86822333  0.56240367  0.51989612     1.11600
O1284       O  0.83191649  0.66525028  0.51219104    -0.96700
Zr1285     Zr  0.85547695  0.64149816  0.51060861     1.88900
O1286       O  0.88415416  0.61038402  0.45398936    -0.73300
O1287       O  0.82144807  0.58945017  0.53255552    -0.52600
O1288       O  0.82601010  0.63084666  0.48839525    -0.97200
O1289       O  0.86506012  0.66947248  0.48086665    -0.54500
O1290       O  0.86189153  0.63215937  0.45208097    -0.73800
C1291       C  0.87283652  0.62083135  0.43752234     0.98500
O1292       O  0.91458175  0.58445374  0.48586646    -0.62600
O1293       O  0.92668555  0.65691898  0.60046866    -0.57400
O1294       O  0.92506381  0.61249264  0.51283136    -0.94100
O1295       O  0.92834212  0.64168947  0.53345518    -0.92600
O1296       O  0.92204907  0.61584255  0.64714489    -0.92900
O1297       O  0.91857512  0.58357162  0.61323602    -0.91700
C1298       C  0.93468327  0.62698173  0.51942067     1.17400
H1299       H  0.89430832  0.64433312  0.63653288     0.33300
H1300       H  0.88335000  0.57888886  0.57196424     0.44200
H1301       H  0.89357205  0.64159221  0.49108131     0.37700
H1302       H  0.83007365  0.63249675  0.56093597     0.34200
H1303       H  0.89460130  0.57577372  0.66736093     0.26000
H1304       H  0.82624598  0.58431926  0.51043225     0.31900
H1305       H  0.82715231  0.63077950  0.46267960     0.37800
H1306       H  0.92811296  0.62356741  0.62941798     0.32300
H1307       H  0.93372222  0.66628947  0.58751511     0.31100
H1308       H  0.91559439  0.68321868  0.53679063     0.32800
H1309       H  0.87483997  0.66562896  0.46454873     0.31800
H1310       H  0.91846885  0.58017411  0.58819652     0.35800
H1311       H  0.91737259  0.57443927  0.50248591     0.28500
H1312       H  0.83129394  0.65758993  0.66596386     0.32700
H1313       H  0.82861800  0.66748128  0.48749989     0.35600
H1314       H  0.92168492  0.66363260  0.62084588     0.28200
H1315       H  0.90788125  0.57844520  0.46644823     0.41100
H1316       H  0.83359896  0.56495237  0.59847076     0.31100
H1317       H  0.87418686  0.57762685  0.65535720     0.38800
H1318       H  0.87148806  0.67676730  0.49897697     0.30600
H1319       H  0.81592086  0.57879301  0.54459071     0.30700
H1320       H  0.82630465  0.66719529  0.63042608     0.30900
Zr1321     Zr  0.64501525  0.64404766  0.13711971     2.17500
O1322       O  0.66395265  0.66751507  0.10966095    -0.51400
O1323       O  0.63960188  0.63616123  0.07579623    -0.74600
O1324       O  0.67743739  0.63504310  0.13260625    -0.81400
O1325       O  0.60684979  0.67937294  0.15697666    -0.83200
O1326       O  0.68037585  0.60615708  0.15447766    -0.78800
O1327       O  0.63531680  0.67649323  0.13354172    -0.90400
O1328       O  0.61696252  0.61484046  0.07300603    -0.76400
O1329       O  0.64087757  0.61145499  0.13458907    -0.85900
O1330       O  0.61282041  0.63859532  0.13269326    -0.85600
O1331       O  0.65791917  0.63234157  0.19064036    -0.72300
O1332       O  0.63124443  0.65722854  0.18819916    -0.84500
Zr1333     Zr  0.60802643  0.60659857  0.23586501     2.26400
Zr1334     Zr  0.65310900  0.59968568  0.18813445     2.06300
Zr1335     Zr  0.59926304  0.65069722  0.18469153     2.10000
Zr1336     Zr  0.60872582  0.60619123  0.13128033     1.78800
O1337       O  0.58954154  0.67563584  0.22304134    -0.93300
O1338       O  0.61760139  0.57761168  0.10251909    -0.41100
O1339       O  0.59497605  0.61822505  0.18288729    -0.77700
O1340       O  0.62097890  0.59333907  0.18351825    -0.96400
O1341       O  0.64003502  0.61265864  0.23978971    -0.89700
O1342       O  0.61159540  0.63920094  0.23814529    -0.92500
C1343       C  0.62867645  0.62549672  0.05891145     1.01200
C1344       C  0.62086372  0.68587359  0.14123166     1.14200
C1345       C  0.68677509  0.62043662  0.13926605     1.04900
O1346       O  0.66009560  0.57234888  0.15371227    -0.94700
O1347       O  0.64719583  0.57210268  0.22200016    -0.90400
O1348       O  0.61810355  0.57462587  0.24250626    -0.83600
C1349       C  0.63291043  0.56550616  0.23683252     1.11600
O1350       O  0.66527757  0.67041644  0.23347840    -0.96700
Zr1351     Zr  0.64361620  0.64525635  0.24077634     1.88900
O1352       O  0.61610866  0.61333156  0.29683265    -0.73300
O1353       O  0.67909932  0.59580533  0.22736194    -0.52600
O1354       O  0.67263440  0.63864162  0.26963204    -0.97200
O1355       O  0.63227136  0.67358977  0.26733319    -0.54500
O1356       O  0.63698192  0.63643381  0.29910756    -0.73800
C1357       C  0.62672725  0.62447567  0.31339030     0.98500
O1358       O  0.58520893  0.58820075  0.26627958    -0.62600
O1359       O  0.57540833  0.65589795  0.14134180    -0.57400
O1360       O  0.57505362  0.61383941  0.23719009    -0.94100
O1361       O  0.57093177  0.64190273  0.21246855    -0.92600
O1362       O  0.57871169  0.61483779  0.10889753    -0.92900
O1363       O  0.58643381  0.58133117  0.13158743    -0.91700
C1364       C  0.56499598  0.62764144  0.22836263     1.17400
H1365       H  0.60766508  0.64453520  0.11217838     0.33300
H1366       H  0.61878861  0.58029569  0.18129917     0.44200
H1367       H  0.60515599  0.64428504  0.25789102     0.37700
H1368       H  0.67073390  0.63522208  0.19341405     0.34200
H1369       H  0.61268915  0.57857983  0.07849939     0.26000
H1370       H  0.68781859  0.58792456  0.21436179     0.31900
H1371       H  0.67126182  0.62601275  0.27880605     0.37800
H1372       H  0.58116535  0.62403048  0.09053710     0.32300
H1373       H  0.56643601  0.64589520  0.14492049     0.31100
H1374       H  0.57879361  0.68112069  0.21122073     0.32800
H1375       H  0.62146029  0.66998262  0.28120963     0.31800
H1376       H  0.58595882  0.57729185  0.15619275     0.35800
H1377       H  0.58314255  0.57720039  0.25145172     0.28500
H1378       H  0.67028376  0.66131375  0.09005731     0.32700
H1379       H  0.66835930  0.67461623  0.25737746     0.35600
H1380       H  0.56902779  0.66715793  0.14937215     0.28200
H1381       H  0.59144811  0.58352114  0.28739828     0.41100
H1382       H  0.67078295  0.56673644  0.16553327     0.31100
H1383       H  0.63103561  0.57852810  0.09972516     0.38800
H1384       H  0.62716096  0.68071744  0.24763039     0.30600
H1385       H  0.68505206  0.60801970  0.22818757     0.30700
H1386       H  0.67371898  0.67044401  0.12676837     0.30900
Zr1387     Zr  0.64376307  0.64460793  0.63704730     2.17500
O1388       O  0.66329410  0.66810619  0.61123347    -0.51400
O1389       O  0.63725715  0.63740524  0.57562327    -0.74600
O1390       O  0.67627912  0.63557459  0.63244581    -0.81400
O1391       O  0.60647839  0.68043934  0.65720407    -0.83200
O1392       O  0.67937909  0.60691004  0.65526362    -0.78800
O1393       O  0.63457103  0.67714165  0.63251501    -0.90400
O1394       O  0.61623271  0.61444573  0.57302834    -0.76400
O1395       O  0.63931976  0.61205558  0.63346447    -0.85900
O1396       O  0.61148440  0.63942800  0.63313457    -0.85600
O1397       O  0.65633341  0.63223505  0.69030743    -0.72300
O1398       O  0.63049003  0.65788714  0.68868651    -0.84500
Zr1399     Zr  0.60641537  0.60709766  0.73494375     2.26400
Zr1400     Zr  0.65146414  0.59966435  0.68649984     2.06300
Zr1401     Zr  0.59847881  0.65193806  0.68520888     2.10000
Zr1402     Zr  0.60708311  0.60697475  0.63094570     1.78800
O1403       O  0.59049419  0.67681934  0.72510109    -0.93300
O1404       O  0.61609772  0.57767151  0.60494893    -0.41100
O1405       O  0.59362737  0.61953869  0.68231264    -0.77700
O1406       O  0.61923219  0.59367524  0.68272565    -0.96400
O1407       O  0.63862641  0.61250836  0.73864169    -0.89700
O1408       O  0.61042260  0.63969652  0.73836347    -0.92500
C1409       C  0.62697219  0.62602350  0.55887651     1.01200
C1410       C  0.62035774  0.68673274  0.64074871     1.14200
C1411       C  0.68577278  0.62115877  0.63986359     1.04900
O1412       O  0.65653719  0.57381073  0.64708217    -0.94700
O1413       O  0.64529838  0.57190562  0.72000633    -0.90400
O1414       O  0.61685623  0.57525937  0.74321552    -0.83600
C1415       C  0.63131681  0.56574699  0.73654443     1.11600
O1416       O  0.66524272  0.66909682  0.73117158    -0.96700
Zr1417     Zr  0.64255043  0.64510109  0.74096854     1.88900
O1418       O  0.61319487  0.61411405  0.79628313    -0.73300
O1419       O  0.67879612  0.59405032  0.72136024    -0.52600
O1420       O  0.67137919  0.63958311  0.77121411    -0.97200
O1421       O  0.63225009  0.67346931  0.76909014    -0.54500
O1422       O  0.63622313  0.63504609  0.79895215    -0.73800
C1423       C  0.62481122  0.62410995  0.81305731     0.98500
O1424       O  0.58313540  0.58732110  0.76072170    -0.62600
O1425       O  0.57405555  0.66016101  0.64477669    -0.57400
O1426       O  0.57356392  0.61468921  0.73641234    -0.94100
O1427       O  0.57015042  0.64298981  0.71231857    -0.92600
O1428       O  0.57898407  0.61538119  0.60047911    -0.92900
O1429       O  0.58266337  0.58432443  0.63585175    -0.91700
C1430       C  0.56386074  0.62875689  0.72776993     1.17400
H1431       H  0.60634473  0.64544602  0.61286437     0.33300
H1432       H  0.61679868  0.58071721  0.68076261     0.44200
H1433       H  0.60406303  0.64467495  0.75823524     0.37700
H1434       H  0.66915427  0.63499510  0.69313174     0.34200
H1435       H  0.60740482  0.57574237  0.58541590     0.26000
H1436       H  0.67434071  0.59310943  0.74564385     0.31900
H1437       H  0.67873864  0.63207332  0.75483005     0.37800
H1438       H  0.58214762  0.62625064  0.58627497     0.32300
H1439       H  0.56830651  0.64831466  0.63825968     0.31100
H1440       H  0.57895027  0.68195286  0.71566688     0.32800
H1441       H  0.63630012  0.67238327  0.79364975     0.31800
H1442       H  0.57359879  0.58999748  0.65178551     0.35800
H1443       H  0.58121928  0.57719015  0.74373099     0.28500
H1444       H  0.66962648  0.66211536  0.59141029     0.32700
H1445       H  0.66666469  0.67561830  0.75373087     0.35600
H1446       H  0.56475294  0.66651468  0.65923182     0.28200
H1447       H  0.58895290  0.58148226  0.78122112     0.41100
H1448       H  0.66715306  0.56718801  0.65710173     0.31100
H1449       H  0.62795302  0.58014785  0.59343459     0.38800
H1450       H  0.61875286  0.67269666  0.77019061     0.30600
H1451       H  0.68265662  0.58140470  0.71508119     0.30700
H1452       H  0.67300216  0.67063976  0.62869886     0.30900
Zr1453     Zr  0.60681217  0.39487741  0.25986664     2.17500
O1454       O  0.58356895  0.41567168  0.23651393    -0.51400
O1455       O  0.61325382  0.38932519  0.19809552    -0.74600
O1456       O  0.61670236  0.42710500  0.25577498    -0.81400
O1457       O  0.57102709  0.35767989  0.27956258    -0.83200
O1458       O  0.64532394  0.42975888  0.27863982    -0.78800
O1459       O  0.57428237  0.38619934  0.25621641    -0.90400
O1460       O  0.63623514  0.36835094  0.19467167    -0.76400
O1461       O  0.63920686  0.39032516  0.25674504    -0.85900
O1462       O  0.61179285  0.36253075  0.25368802    -0.85600
O1463       O  0.61907551  0.40704248  0.31360983    -0.72300
O1464       O  0.59409200  0.38056248  0.31057299    -0.84500
Zr1465     Zr  0.64392017  0.35574815  0.35669786     2.26400
Zr1466     Zr  0.65143449  0.40167943  0.31083832     2.06300
Zr1467     Zr  0.59987733  0.34836766  0.30494974     2.10000
Zr1468     Zr  0.64399930  0.35798376  0.25204881     1.78800
O1469       O  0.57385240  0.33692357  0.33788825    -0.93300
O1470       O  0.67339389  0.36745650  0.22808291    -0.41100
O1471       O  0.63213126  0.34338768  0.30297957    -0.77700
O1472       O  0.65706210  0.36921412  0.30497417    -0.96400
O1473       O  0.63878884  0.38805021  0.36214903    -0.89700
O1474       O  0.61154676  0.36017779  0.35889667    -0.92500
C1475       C  0.62464817  0.37931351  0.18094646     1.01200
C1476       C  0.56467401  0.37198261  0.26427050     1.14200
C1477       C  0.63118271  0.43639442  0.26326571     1.04900
O1478       O  0.67920531  0.40975084  0.27930311    -0.94700
O1479       O  0.67912125  0.39453512  0.34341111    -0.90400
O1480       O  0.67590742  0.36556395  0.36475060    -0.83600
C1481       C  0.68535070  0.38017748  0.35879764     1.11600
O1482       O  0.58276051  0.41581871  0.35621681    -0.96700
Zr1483     Zr  0.60647395  0.39248691  0.36344278     1.88900
O1484       O  0.63743992  0.36287347  0.41790054    -0.73300
O1485       O  0.65387878  0.42743412  0.35139326    -0.52600
O1486       O  0.61662431  0.41999893  0.39454669    -0.97200
O1487       O  0.57719318  0.38422939  0.38929942    -0.54500
O1488       O  0.61425983  0.38362990  0.42149546    -0.73800
C1489       C  0.62623187  0.37306581  0.43511495     0.98500
O1490       O  0.66271201  0.33187242  0.38345197    -0.62600
O1491       O  0.59702077  0.32500730  0.25942613    -0.57400
O1492       O  0.63482684  0.32317514  0.36140807    -0.94100
O1493       O  0.60704882  0.32011351  0.33526976    -0.92600
O1494       O  0.63343512  0.33045551  0.22167842    -0.92900
O1495       O  0.66661079  0.33335791  0.25077932    -0.91700
C1496       C  0.62060324  0.31370726  0.35274431     1.17400
H1497       H  0.60587312  0.35782147  0.23310030     0.33300
H1498       H  0.66997436  0.36667510  0.30286200     0.44200
H1499       H  0.60621234  0.35368999  0.37836072     0.37700
H1500       H  0.61643431  0.41993257  0.31664299     0.34200
H1501       H  0.67173710  0.36733050  0.20245908     0.26000
H1502       H  0.65761407  0.42187235  0.37382778     0.31900
H1503       H  0.61690188  0.42988235  0.37689430     0.37800
H1504       H  0.63943934  0.33085187  0.19857014     0.32300
H1505       H  0.59268404  0.31385076  0.27156946     0.31100
H1506       H  0.56897891  0.32663517  0.32364365     0.32800
H1507       H  0.57995018  0.37388700  0.40516654     0.31800
H1508       H  0.66224010  0.32437742  0.26821599     0.35800
H1509       H  0.67346008  0.33027823  0.36801997     0.28500
H1510       H  0.58937674  0.42233643  0.21700045     0.32700
H1511       H  0.58168052  0.42204881  0.37912931     0.35600
H1512       H  0.58644617  0.32894011  0.24508899     0.28200
H1513       H  0.66762209  0.33741128  0.40516461     0.41100
H1514       H  0.68055747  0.42320932  0.28238229     0.31100
H1515       H  0.67444419  0.38065169  0.23421922     0.38800
H1516       H  0.57019616  0.37853789  0.36991900     0.30600
H1517       H  0.66480221  0.43431244  0.34356498     0.30700
H1518       H  0.58151297  0.42508414  0.25487552     0.30900
Zr1519     Zr  0.64401941  0.35733279  0.85845870     2.17500
O1520       O  0.66421284  0.33449380  0.88490664    -0.51400
O1521       O  0.63751117  0.36510704  0.91929222    -0.74600
O1522       O  0.67593242  0.36768385  0.86624074    -0.81400
O1523       O  0.60663697  0.32147926  0.83950620    -0.83200
O1524       O  0.67930876  0.39575059  0.84118340    -0.78800
O1525       O  0.63485799  0.32491099  0.86386987    -0.90400
O1526       O  0.61636112  0.38798323  0.92083681    -0.76400
O1527       O  0.63881906  0.38970546  0.86122891    -0.85900
O1528       O  0.61155971  0.36173089  0.86057665    -0.85600
O1529       O  0.65718783  0.36950069  0.80587788    -0.72300
O1530       O  0.63186851  0.34387184  0.80593956    -0.84500
Zr1531     Zr  0.60732199  0.39429870  0.75795376     2.26400
Zr1532     Zr  0.65153183  0.40198847  0.80864450     2.06300
Zr1533     Zr  0.59961370  0.34917267  0.80736031     2.10000
Zr1534     Zr  0.60647007  0.39402985  0.86238707     1.78800
O1535       O  0.59514350  0.32438976  0.76527120    -0.93300
O1536       O  0.61403566  0.42424637  0.88602418    -0.41100
O1537       O  0.59389063  0.38155350  0.80986455    -0.77700
O1538       O  0.61913767  0.40743646  0.81134092    -0.96400
O1539       O  0.63956288  0.38929430  0.75558441    -0.89700
O1540       O  0.61208694  0.36174351  0.75499268    -0.92500
C1541       C  0.62741829  0.37682324  0.93549438     1.01200
C1542       C  0.62051434  0.31535626  0.85642483     1.14200
C1543       C  0.68546901  0.38197427  0.85838256     1.04900
O1544       O  0.65775835  0.42856262  0.84564776    -0.94700
O1545       O  0.64513711  0.42999488  0.77654986    -0.90400
O1546       O  0.61645684  0.42695816  0.75407386    -0.83600
C1547       C  0.63090443  0.43644142  0.76119314     1.11600
O1548       O  0.66782575  0.33312072  0.75844323    -0.96700
Zr1549     Zr  0.64431878  0.35682989  0.75403198     1.88900
O1550       O  0.61571226  0.38749435  0.69729803    -0.73300
O1551       O  0.67786012  0.40645326  0.77077672    -0.52600
O1552       O  0.67355825  0.36645206  0.72962457    -0.97200
O1553       O  0.63563081  0.32762651  0.72723301    -0.54500
O1554       O  0.63731151  0.36504394  0.69509366    -0.73800
C1555       C  0.62660540  0.37664959  0.68072548     0.98500
O1556       O  0.58605697  0.41313233  0.72419321    -0.62600
O1557       O  0.57419951  0.33871055  0.84326919    -0.57400
O1558       O  0.57464476  0.38609791  0.75466082    -0.94100
O1559       O  0.57116860  0.35802206  0.77967741    -0.92600
O1560       O  0.57841589  0.38392198  0.89083776    -0.92900
O1561       O  0.58143790  0.41614361  0.86000961    -0.91700
C1562       C  0.56494026  0.37205609  0.76334899     1.17400
H1563       H  0.60634118  0.35576099  0.88024606     0.33300
H1564       H  0.61649465  0.42029122  0.81403494     0.44200
H1565       H  0.60609629  0.35651290  0.73459511     0.37700
H1566       H  0.67004437  0.36692437  0.80413727     0.34200
H1567       H  0.61010322  0.42386994  0.91070428     0.26000
H1568       H  0.67264069  0.40993083  0.74788115     0.31900
H1569       H  0.67049405  0.37588067  0.71200250     0.37800
H1570       H  0.58240607  0.37747391  0.91223009     0.32300
H1571       H  0.56679557  0.34985996  0.84796871     0.31100
H1572       H  0.58273221  0.31961991  0.77019186     0.32800
H1573       H  0.62458455  0.33033304  0.71316143     0.31800
H1574       H  0.58365103  0.42327206  0.83849096     0.35800
H1575       H  0.58251563  0.42352315  0.73961117     0.28500
H1576       H  0.66968390  0.34050544  0.90567330     0.32700
H1577       H  0.67158786  0.33034241  0.73418616     0.35600
H1578       H  0.56651460  0.33111411  0.82753391     0.28200
H1579       H  0.59341245  0.41874238  0.70540982     0.41100
H1580       H  0.66811845  0.43490398  0.83424844     0.31100
H1581       H  0.62756886  0.42439819  0.88715744     0.38800
H1582       H  0.63112110  0.32004054  0.74678584     0.30600
H1583       H  0.68375009  0.41782308  0.77957621     0.30700
H1584       H  0.67448037  0.33276769  0.86836838     0.30900
Zr1585     Zr  0.14200378  0.64376434  0.11834020     2.17500
O1586       O  0.16336487  0.66202628  0.15321401    -0.51400
O1587       O  0.13608666  0.63438826  0.17856235    -0.74600
O1588       O  0.13178938  0.67571756  0.12776027    -0.81400
O1589       O  0.17911555  0.60886484  0.09286042    -0.83200
O1590       O  0.10345180  0.67896451  0.10394509    -0.78800
O1591       O  0.17505052  0.63740082  0.11621214    -0.90400
O1592       O  0.11199016  0.61476279  0.17950530    -0.76400
O1593       O  0.10993035  0.63784066  0.12206530    -0.85900
O1594       O  0.13846881  0.61109028  0.11861114    -0.85600
O1595       O  0.12883117  0.65771428  0.06703133    -0.72300
O1596       O  0.15497054  0.63263008  0.06471539    -0.84500
Zr1597     Zr  0.10520703  0.60783066  0.01658043     2.26400
Zr1598     Zr  0.09669124  0.65116925  0.07093166     2.06300
Zr1599     Zr  0.15067316  0.60001020  0.06454110     2.10000
Zr1600     Zr  0.10643561  0.60525533  0.12076667     1.78800
O1601       O  0.17549241  0.59361644  0.02392526    -0.93300
O1602       O  0.07628833  0.60970516  0.14654758    -0.41100
O1603       O  0.11861207  0.59400890  0.06727534    -0.77700
O1604       O  0.09211874  0.61848710  0.07074676    -0.96400
O1605       O  0.10906569  0.64034389  0.01676160    -0.89700
O1606       O  0.13737865  0.61322095  0.01331841    -0.92500
C1607       C  0.12416653  0.62454231  0.19449085     1.01200
C1608       C  0.18508813  0.62347846  0.10794334     1.14200
C1609       C  0.11731913  0.68517778  0.12087829     1.04900
O1610       O  0.07163127  0.65302589  0.11263674    -0.94700
O1611       O  0.06923777  0.64515549  0.03715759    -0.90400
O1612       O  0.07317321  0.61763768  0.00965653    -0.83600
C1613       C  0.06344575  0.63168829  0.01841313     1.11600
O1614       O  0.16284532  0.67108100  0.01890733    -0.96700
Zr1615     Zr  0.14116750  0.64574111  0.01411433     1.88900
O1616       O  0.11236870  0.61573961  0.95584324    -0.73300
O1617       O  0.08740816  0.67792882  0.03715724    -0.52600
O1618       O  0.13032660  0.67395201  0.98679411    -0.97200
O1619       O  0.17032828  0.63719858  0.98779720    -0.54500
O1620       O  0.13358204  0.63852309  0.95496687    -0.73800
C1621       C  0.12290151  0.62710802  0.93989012     0.98500
O1622       O  0.08666449  0.58437440  0.98766113    -0.62600
O1623       O  0.15842707  0.57379727  0.10116980    -0.57400
O1624       O  0.11355553  0.57523888  0.01259391    -0.94100
O1625       O  0.14229574  0.57172514  0.03454321    -0.92600
O1626       O  0.11989035  0.57814897  0.14793954    -0.92900
O1627       O  0.08646132  0.57859852  0.11590986    -0.91700
C1628       C  0.12784064  0.56552197  0.01946809     1.17400
H1629       H  0.14483154  0.60568787  0.13816713     0.33300
H1630       H  0.07930261  0.61548967  0.07251043     0.44200
H1631       H  0.14258003  0.60761254  0.99266535     0.37700
H1632       H  0.13111035  0.67067923  0.06566533     0.34200
H1633       H  0.07669498  0.60282083  0.16876451     0.26000
H1634       H  0.07903242  0.68491657  0.05258275     0.31900
H1635       H  0.11724326  0.67169534  0.98152133     0.37800
H1636       H  0.11824135  0.57992769  0.17335195     0.32300
H1637       H  0.16893682  0.56786430  0.08933868     0.31100
H1638       H  0.18050694  0.58161204  0.03144180     0.32800
H1639       H  0.16750312  0.62689079  0.97171999     0.31800
H1640       H  0.08271092  0.57834417  0.09108048     0.35800
H1641       H  0.07593924  0.58240200  0.00296568     0.28500
H1642       H  0.15612854  0.66729500  0.17265586     0.32700
H1643       H  0.16742311  0.67308190  0.99493202     0.35600
H1644       H  0.16370626  0.57910773  0.12276374     0.28200
H1645       H  0.08168610  0.59029951  0.96647439     0.41100
H1646       H  0.06981937  0.66632592  0.11705122     0.31100
H1647       H  0.07606657  0.62278604  0.15377706     0.38800
H1648       H  0.17739723  0.63147780  0.00695167     0.30600
H1649       H  0.09853068  0.68564718  0.03556169     0.30700
H1650       H  0.16673087  0.67267606  0.13854714     0.30900
Zr1651     Zr  0.14251905  0.64295492  0.61490779     2.17500
O1652       O  0.16541770  0.66288957  0.64210982    -0.51400
O1653       O  0.13561570  0.63727238  0.67675598    -0.74600
O1654       O  0.13254446  0.67524168  0.62051726    -0.81400
O1655       O  0.17844872  0.60500291  0.59577258    -0.83200
O1656       O  0.10435280  0.67838583  0.59597690    -0.78800
O1657       O  0.17512023  0.63418871  0.61650902    -0.90400
O1658       O  0.11262278  0.61636253  0.67979159    -0.76400
O1659       O  0.11026287  0.63825212  0.61844751    -0.85900
O1660       O  0.13776840  0.61056976  0.61989067    -0.85600
O1661       O  0.13002092  0.65522567  0.56142198    -0.72300
O1662       O  0.15529388  0.62911282  0.56322446    -0.84500
Zr1663     Zr  0.10473573  0.60383477  0.51821985     2.26400
Zr1664     Zr  0.09763256  0.64983989  0.56514715     2.06300
Zr1665     Zr  0.14979466  0.59679812  0.56790436     2.10000
Zr1666     Zr  0.10556394  0.60592860  0.62219287     1.78800
O1667       O  0.17466403  0.58883366  0.52840567    -0.93300
O1668       O  0.07590192  0.61564822  0.64476992    -0.41100
O1669       O  0.11748815  0.59155091  0.57100036    -0.77700
O1670       O  0.09207845  0.61744128  0.57019601    -0.96400
O1671       O  0.10978809  0.63619654  0.51312366    -0.89700
O1672       O  0.13710230  0.60830759  0.51477993    -0.92500
C1673       C  0.12412632  0.62735651  0.69377251     1.01200
C1674       C  0.18477346  0.61974516  0.60979077     1.14200
C1675       C  0.11822765  0.68475377  0.61271376     1.04900
O1676       O  0.07189528  0.65638127  0.60349333    -0.94700
O1677       O  0.06982305  0.64233190  0.53322952    -0.90400
O1678       O  0.07282938  0.61378104  0.50932900    -0.83600
C1679       C  0.06347957  0.62834496  0.51656327     1.11600
O1680       O  0.16639458  0.66352449  0.51269818    -0.96700
Zr1681     Zr  0.14205553  0.64059343  0.51063364     1.88900
O1682       O  0.11168528  0.60863270  0.45661567    -0.73300
O1683       O  0.09032780  0.67500590  0.52571878    -0.52600
O1684       O  0.13197075  0.66918801  0.48375116    -0.97200
O1685       O  0.16974000  0.63151857  0.47939863    -0.54500
O1686       O  0.13308249  0.63117797  0.45327158    -0.73800
C1687       C  0.12223988  0.61944406  0.43953907     0.98500
O1688       O  0.08146317  0.58294896  0.49510738    -0.62600
O1689       O  0.15595297  0.57139463  0.60750861    -0.57400
O1690       O  0.11399095  0.57125236  0.51599492    -0.94100
O1691       O  0.14237372  0.56801727  0.53952269    -0.92600
O1692       O  0.11603869  0.57871875  0.65319087    -0.92900
O1693       O  0.08344873  0.58089877  0.62288483    -0.91700
C1694       C  0.12820433  0.56164054  0.52390300     1.17400
H1695       H  0.14381070  0.60578079  0.64038736     0.33300
H1696       H  0.07915935  0.61490542  0.57235788     0.44200
H1697       H  0.14220279  0.60172356  0.49506664     0.37700
H1698       H  0.13266618  0.66810417  0.55859613     0.34200
H1699       H  0.07408447  0.60834768  0.66621123     0.26000
H1700       H  0.08272167  0.68357746  0.53966571     0.31900
H1701       H  0.12036610  0.66604720  0.47175380     0.37800
H1702       H  0.12044711  0.57029317  0.63466387     0.32300
H1703       H  0.16726564  0.56562469  0.59839303     0.31100
H1704       H  0.17906827  0.57669549  0.53652444     0.32800
H1705       H  0.16718279  0.61911619  0.46982159     0.31800
H1706       H  0.08596269  0.57383349  0.60128473     0.35800
H1707       H  0.08724141  0.57629414  0.47539422     0.28500
H1708       H  0.15906835  0.66966486  0.66100257     0.32700
H1709       H  0.16799712  0.66770687  0.48834753     0.35600
H1710       H  0.15974234  0.57717603  0.62979144     0.28200
H1711       H  0.07948342  0.57354736  0.51332305     0.41100
H1712       H  0.06517463  0.66648735  0.59187875     0.31100
H1713       H  0.07790595  0.62835418  0.65333516     0.38800
H1714       H  0.17902373  0.62939770  0.49779385     0.30600
H1715       H  0.10204017  0.68159101  0.52241991     0.30700
H1716       H  0.16838146  0.67230727  0.62440846     0.30900
Zr1717     Zr  0.10580974  0.39063502  0.48558648     2.17500
O1718       O  0.08676908  0.41292094  0.51658078    -0.51400
O1719       O  0.11325706  0.38218868  0.54609644    -0.74600
O1720       O  0.07367048  0.38074663  0.49180681    -0.81400
O1721       O  0.14311229  0.42720457  0.46840718    -0.83200
O1722       O  0.07013542  0.35319203  0.46443040    -0.78800
O1723       O  0.11407034  0.42335545  0.48846629    -0.90400
O1724       O  0.13257492  0.35769883  0.54657024    -0.76400
O1725       O  0.11034688  0.35817796  0.48510365    -0.85900
O1726       O  0.13813056  0.38580239  0.48865344    -0.85600
O1727       O  0.09270968  0.38015008  0.43118851    -0.72300
O1728       O  0.11888994  0.40498221  0.43515685    -0.84500
Zr1729     Zr  0.14268635  0.35557694  0.38323130     2.26400
Zr1730     Zr  0.09773035  0.34750947  0.43092156     2.06300
Zr1731     Zr  0.15103223  0.39922005  0.43731654     2.10000
Zr1732     Zr  0.14262666  0.35342644  0.48746809     1.78800
O1733       O  0.15801295  0.42457480  0.39825950    -0.93300
O1734       O  0.13689925  0.32246113  0.50891001    -0.41100
O1735       O  0.15596387  0.36666268  0.43671508    -0.77700
O1736       O  0.12996515  0.34151064  0.43463945    -0.96400
O1737       O  0.11053307  0.36133132  0.37991136    -0.89700
O1738       O  0.13880793  0.38822139  0.38316115    -0.92500
C1739       C  0.12258013  0.36968175  0.56190020     1.01200
C1740       C  0.12835605  0.43322287  0.48251239     1.14200
C1741       C  0.06409021  0.36659627  0.48299717     1.04900
O1742       O  0.08988798  0.32105731  0.46652922    -0.94700
O1743       O  0.10456123  0.31985945  0.39715313    -0.90400
O1744       O  0.13298689  0.32349145  0.37397760    -0.83600
C1745       C  0.11861226  0.31383041  0.38048205     1.11600
O1746       O  0.08440510  0.41868365  0.38655782    -0.96700
Zr1747     Zr  0.10671632  0.39392551  0.38141895     1.88900
O1748       O  0.13625810  0.36464906  0.32311142    -0.73300
O1749       O  0.07208213  0.34385024  0.39075985    -0.52600
O1750       O  0.07797117  0.38740159  0.35158315    -0.97200
O1751       O  0.11688461  0.42362986  0.35935368    -0.54500
O1752       O  0.11457110  0.38701907  0.32226142    -0.73800
C1753       C  0.12562168  0.37595631  0.30725943     0.98500
O1754       O  0.16194097  0.33466910  0.34923682    -0.62600
O1755       O  0.17729044  0.40567896  0.47473275    -0.57400
O1756       O  0.17546459  0.36364963  0.38319053    -0.94100
O1757       O  0.17941382  0.39158315  0.40889535    -0.92600
O1758       O  0.16926707  0.36557084  0.51806936    -0.92900
O1759       O  0.16827076  0.33221350  0.48157037    -0.91700
C1760       C  0.18539248  0.37749297  0.39235947     1.17400
H1761       H  0.14320262  0.39134444  0.50942221     0.33300
H1762       H  0.13239779  0.32847626  0.43584255     0.44200
H1763       H  0.14518586  0.39377316  0.36366097     0.37700
H1764       H  0.07985267  0.38300757  0.42941291     0.34200
H1765       H  0.14369081  0.32170628  0.53124101     0.26000
H1766       H  0.06387915  0.33490520  0.40223632     0.31900
H1767       H  0.08038699  0.37618643  0.33758573     0.37800
H1768       H  0.17819425  0.36833457  0.49942447     0.32300
H1769       H  0.18131217  0.41816916  0.46800725     0.31100
H1770       H  0.16688048  0.43227893  0.41129413     0.32800
H1771       H  0.12823779  0.42106315  0.34613666     0.31800
H1772       H  0.16655846  0.32645703  0.45833820     0.35800
H1773       H  0.16848716  0.34241007  0.33212113     0.28500
H1774       H  0.08094579  0.40610364  0.53588845     0.32700
H1775       H  0.08019773  0.41812859  0.41105604     0.35600
H1776       H  0.17221877  0.40722019  0.49846961     0.28200
H1777       H  0.17152419  0.33016143  0.36539780     0.41100
H1778       H  0.07922834  0.31542671  0.45460216     0.31100
H1779       H  0.12384083  0.32250520  0.51576374     0.38800
H1780       H  0.12102893  0.43052137  0.38024393     0.30600
H1781       H  0.06537960  0.35567669  0.39204767     0.30700
H1782       H  0.07664089  0.41598031  0.50037220     0.30900
Zr1783     Zr  0.14376546  0.35624314  0.88729178     2.17500
O1784       O  0.16623490  0.33649764  0.85856096    -0.51400
O1785       O  0.13785322  0.36277313  0.82537689    -0.74600
O1786       O  0.13336395  0.32409166  0.88094896    -0.81400
O1787       O  0.17996732  0.39347761  0.90733344    -0.83200
O1788       O  0.10495407  0.32156094  0.90460663    -0.78800
O1789       O  0.17668822  0.36393390  0.88852364    -0.90400
O1790       O  0.11532157  0.38418862  0.82192659    -0.76400
O1791       O  0.11160619  0.36180059  0.88247310    -0.85900
O1792       O  0.13983573  0.38879389  0.88322847    -0.85600
O1793       O  0.13038305  0.34390059  0.93982584    -0.72300
O1794       O  0.15637854  0.36918937  0.93990823    -0.84500
Zr1795     Zr  0.10606176  0.39543571  0.98344110     2.26400
Zr1796     Zr  0.09815775  0.35018493  0.93496977     2.06300
Zr1797     Zr  0.15169165  0.40172435  0.93614395     2.10000
Zr1798     Zr  0.10777901  0.39429006  0.87947246     1.78800
O1799       O  0.17689189  0.40830301  0.97599966    -0.93300
O1800       O  0.07828752  0.38589183  0.85429669    -0.41100
O1801       O  0.11962013  0.40770150  0.93163679    -0.77700
O1802       O  0.09329700  0.38276400  0.93055749    -0.96400
O1803       O  0.11019561  0.36298621  0.98782290    -0.89700
O1804       O  0.13822757  0.39009643  0.98826824    -0.92500
C1805       C  0.12672391  0.37304331  0.80814475     1.01200
C1806       C  0.18634199  0.37846215  0.89453978     1.14200
C1807       C  0.11884854  0.31486343  0.88848345     1.04900
O1808       O  0.07215162  0.34475123  0.89645264    -0.94700
O1809       O  0.07051359  0.35778248  0.96712590    -0.90400
O1810       O  0.07384366  0.38637986  0.99048315    -0.83600
C1811       C  0.06432938  0.37193433  0.98343995     1.11600
O1812       O  0.16290748  0.33123634  0.99181387    -0.96700
Zr1813     Zr  0.14229723  0.35764912  0.99151801     1.88900
O1814       O  0.11267563  0.38964994  0.04504782    -0.73300
O1815       O  0.08983806  0.32484209  0.97315856    -0.52600
O1816       O  0.12955463  0.33139429  0.02249511    -0.97200
O1817       O  0.17201191  0.36507092  0.01696357    -0.54500
O1818       O  0.13545775  0.36847615  0.04882257    -0.73800
C1819       C  0.12400886  0.37966321  0.06231519     0.98500
O1820       O  0.08740963  0.41948834  0.01026795    -0.62600
O1821       O  0.15817697  0.42705860  0.89672044    -0.57400
O1822       O  0.11479300  0.42797094  0.98285971    -0.94100
O1823       O  0.14453635  0.43025947  0.96614391    -0.92600
O1824       O  0.11921844  0.42149240  0.84977554    -0.92900
O1825       O  0.08647801  0.42008226  0.87832346    -0.91700
C1826       C  0.12961635  0.43713928  0.97801545     1.17400
H1827       H  0.14625924  0.39372283  0.86326609     0.33300
H1828       H  0.08040841  0.38561878  0.92796343     0.44200
H1829       H  0.14336259  0.39641428  0.00821189     0.37700
H1830       H  0.13272555  0.33099328  0.94263778     0.34200
H1831       H  0.07800814  0.39201374  0.83129301     0.26000
H1832       H  0.08053641  0.31776995  0.95991670     0.31900
H1833       H  0.11871068  0.33622613  0.03500843     0.37800
H1834       H  0.11328438  0.42126403  0.82653048     0.32300
H1835       H  0.14663136  0.43418807  0.89570471     0.31100
H1836       H  0.18241319  0.41978239  0.96708096     0.32800
H1837       H  0.17079238  0.37785779  0.02561799     0.31800
H1838       H  0.07733907  0.41725993  0.89655253     0.35800
H1839       H  0.07719016  0.42177201  0.99379784     0.28500
H1840       H  0.15993624  0.33131256  0.83785691     0.32700
H1841       H  0.16548325  0.32875495  0.01672587     0.35600
H1842       H  0.16677059  0.43508388  0.90973395     0.28200
H1843       H  0.08167287  0.41382370  0.03095580     0.41100
H1844       H  0.06854871  0.33184413  0.90083996     0.31100
H1845       H  0.07943375  0.37264010  0.84867928     0.38800
H1846       H  0.18041019  0.36600484  0.99681650     0.30600
H1847       H  0.10073617  0.31674277  0.97368303     0.30700
H1848       H  0.16816176  0.32592212  0.87435497     0.30900
Zr1849     Zr  0.39361892  0.39211349  0.26382346     2.17500
O1850       O  0.41189310  0.41474867  0.23245879    -0.51400
O1851       O  0.38725542  0.38446472  0.20257633    -0.74600
O1852       O  0.42608471  0.38292126  0.25913366    -0.81400
O1853       O  0.35669759  0.42858563  0.28383106    -0.83200
O1854       O  0.42978662  0.35534446  0.28599464    -0.78800
O1855       O  0.38584821  0.42501768  0.26410543    -0.90400
O1856       O  0.36763962  0.36033371  0.20014024    -0.76400
O1857       O  0.38943078  0.35960197  0.26159353    -0.85900
O1858       O  0.36137191  0.38693125  0.25874460    -0.85600
O1859       O  0.40607093  0.38070483  0.31789676    -0.72300
O1860       O  0.37970474  0.40527407  0.31483681    -0.84500
Zr1861     Zr  0.35564750  0.35519864  0.36225326     2.26400
Zr1862     Zr  0.40134024  0.34808791  0.31548211     2.06300
Zr1863     Zr  0.34765074  0.39962785  0.31027635     2.10000
Zr1864     Zr  0.35723335  0.35447215  0.25798338     1.78800
O1865       O  0.34027704  0.42541310  0.34846755    -0.93300
O1866       O  0.36608290  0.32484027  0.23312505    -0.41100
O1867       O  0.34283197  0.36693982  0.30883721    -0.77700
O1868       O  0.36915765  0.34203061  0.31050690    -0.96400
O1869       O  0.38776018  0.36078372  0.36703411    -0.89700
O1870       O  0.35937731  0.38779024  0.36408102    -0.92500
C1871       C  0.37802937  0.37218404  0.18592285     1.01200
C1872       C  0.37160557  0.43488079  0.27078588     1.14200
C1873       C  0.43588679  0.36903756  0.26850279     1.04900
O1874       O  0.40878230  0.32195820  0.27817777    -0.94700
O1875       O  0.39395267  0.32031059  0.34738787    -0.90400
O1876       O  0.36543423  0.32316273  0.37057080    -0.83600
C1877       C  0.38000963  0.31387963  0.36359954     1.11600
O1878       O  0.41436661  0.41738730  0.36287189    -0.96700
Zr1879     Zr  0.39141592  0.39328801  0.36811837     1.88900
O1880       O  0.36128261  0.36308366  0.42385377    -0.73300
O1881       O  0.42734915  0.34251906  0.35396837    -0.52600
O1882       O  0.41896510  0.38392751  0.39926194    -0.97200
O1883       O  0.38148257  0.42198638  0.39535980    -0.54500
O1884       O  0.38294921  0.38540414  0.42627087    -0.73800
C1885       C  0.37183207  0.37423511  0.44058458     0.98500
O1886       O  0.33627261  0.33178521  0.38881983    -0.62600
O1887       O  0.32379479  0.40618987  0.26746916    -0.57400
O1888       O  0.32316994  0.36414170  0.36426588    -0.94100
O1889       O  0.31935755  0.39251532  0.34046804    -0.92600
O1890       O  0.32933665  0.36496996  0.22946370    -0.92900
O1891       O  0.33379024  0.33068775  0.25775124    -0.91700
C1892       C  0.31339630  0.37831034  0.35658802     1.17400
H1893       H  0.35639825  0.39263665  0.23806798     0.33300
H1894       H  0.36678872  0.32900445  0.30839760     0.44200
H1895       H  0.35279685  0.39305322  0.38357535     0.37700
H1896       H  0.41883200  0.38377239  0.32069730     0.34200
H1897       H  0.36052311  0.32455776  0.20954604     0.26000
H1898       H  0.42200624  0.33792547  0.37596535     0.31900
H1899       H  0.42726471  0.37899125  0.38112866     0.37800
H1900       H  0.32877090  0.35788705  0.20737298     0.32300
H1901       H  0.31392700  0.39723096  0.27222411     0.31100
H1902       H  0.32856040  0.43030789  0.33937190     0.32800
H1903       H  0.36933621  0.41934700  0.40555720     0.31800
H1904       H  0.32987673  0.32979273  0.28238411     0.35800
H1905       H  0.33073465  0.33773630  0.40955098     0.28500
H1906       H  0.41629194  0.40836273  0.21121547     0.32700
H1907       H  0.41782559  0.42063445  0.38711029     0.35600
H1908       H  0.31865744  0.41821238  0.27475223     0.28200
H1909       H  0.32597047  0.32970049  0.37244634     0.41100
H1910       H  0.41723035  0.31433195  0.29226503     0.31100
H1911       H  0.37939484  0.32591249  0.22879404     0.38800
H1912       H  0.37884960  0.43032587  0.37562937     0.30600
H1913       H  0.43364769  0.33171187  0.34371656     0.30700
H1914       H  0.42301289  0.41687278  0.24675198     0.30900
Zr1915     Zr  0.39422445  0.39317354  0.76387497     2.17500
O1916       O  0.41255285  0.41631155  0.73405148    -0.51400
O1917       O  0.38686660  0.38573212  0.70272677    -0.74600
O1918       O  0.42659849  0.38387740  0.75705028    -0.81400
O1919       O  0.35674438  0.42903709  0.78441417    -0.83200
O1920       O  0.43049429  0.35631998  0.78388670    -0.78800
O1921       O  0.38549841  0.42578052  0.76247756    -0.90400
O1922       O  0.36467146  0.36391063  0.70120693    -0.76400
O1923       O  0.39040450  0.36060440  0.76282112    -0.85900
O1924       O  0.36200732  0.38762487  0.76027917    -0.85600
O1925       O  0.40745294  0.38232020  0.81775128    -0.72300
O1926       O  0.38065537  0.40660470  0.81514565    -0.84500
Zr1927     Zr  0.35754165  0.35617016  0.86341368     2.26400
Zr1928     Zr  0.40298619  0.34966904  0.81667584     2.06300
Zr1929     Zr  0.34865352  0.40032625  0.81199267     2.10000
Zr1930     Zr  0.35824896  0.35513533  0.75971401     1.78800
O1931       O  0.33989149  0.42475149  0.85231079    -0.93300
O1932       O  0.36921870  0.32827954  0.72763906    -0.41100
O1933       O  0.34423663  0.36774387  0.81055379    -0.77700
O1934       O  0.37097044  0.34289546  0.81171805    -0.96400
O1935       O  0.38954033  0.36249055  0.86798168    -0.89700
O1936       O  0.36103007  0.38890567  0.86550429    -0.92500
C1937       C  0.37572082  0.37496842  0.68647503     1.01200
C1938       C  0.37117085  0.43537528  0.76977855     1.14200
C1939       C  0.43638895  0.36985509  0.76574110     1.04900
O1940       O  0.41298434  0.32220774  0.78547780    -0.94700
O1941       O  0.39633398  0.32143520  0.84768312    -0.90400
O1942       O  0.36780678  0.32410624  0.87092303    -0.83600
C1943       C  0.38240118  0.31485125  0.86373465     1.11600
O1944       O  0.41546913  0.41954822  0.86102007    -0.96700
Zr1945     Zr  0.39304064  0.39507770  0.86824459     1.88900
O1946       O  0.36367036  0.36406723  0.92426025    -0.73300
O1947       O  0.42702299  0.34841925  0.86074824    -0.52600
O1948       O  0.42153039  0.38771297  0.89823398    -0.97200
O1949       O  0.38389210  0.42422611  0.89469118    -0.54500
O1950       O  0.38450298  0.38719546  0.92666547    -0.73800
C1951       C  0.37385665  0.37550335  0.94089871     0.98500
O1952       O  0.33835954  0.33467924  0.89567302    -0.62600
O1953       O  0.32405948  0.40699520  0.77084202    -0.57400
O1954       O  0.32454955  0.36362195  0.86275744    -0.94100
O1955       O  0.32016079  0.39197696  0.83951071    -0.92600
O1956       O  0.32800484  0.36177025  0.73600704    -0.92900
O1957       O  0.33708544  0.32947530  0.76542729    -0.91700
C1958       C  0.31437976  0.37748784  0.85482709     1.17400
H1959       H  0.35677936  0.39329924  0.73996187     0.33300
H1960       H  0.36882434  0.32984546  0.80951859     0.44200
H1961       H  0.35461105  0.39410337  0.88504305     0.37700
H1962       H  0.42021664  0.38543073  0.81977797     0.34200
H1963       H  0.38175843  0.33154042  0.72011857     0.26000
H1964       H  0.43379001  0.33693017  0.85555444     0.31900
H1965       H  0.42149617  0.39560633  0.91935198     0.37800
H1966       H  0.32952796  0.37318910  0.72236760     0.32300
H1967       H  0.31733687  0.41742701  0.78148718     0.31100
H1968       H  0.32957921  0.43111156  0.84066355     0.32800
H1969       H  0.37208170  0.42170012  0.90630818     0.31800
H1970       H  0.33246698  0.33045077  0.78963032     0.35800
H1971       H  0.33139643  0.34217302  0.91273977     0.28500
H1972       H  0.41842241  0.40989011  0.71418782     0.32700
H1973       H  0.41366935  0.42386661  0.83678942     0.35600
H1974       H  0.33008477  0.41235267  0.75015070     0.28200
H1975       H  0.32911686  0.33006210  0.87885738     0.41100
H1976       H  0.41350934  0.32588733  0.76067259     0.31100
H1977       H  0.37107793  0.31866649  0.74549885     0.38800
H1978       H  0.38063051  0.43222890  0.87478588     0.30600
H1979       H  0.43562597  0.35837665  0.85447742     0.30700
H1980       H  0.42270401  0.41937024  0.75024505     0.30900
Zr1981     Zr  0.35607764  0.64240207  0.13522870     2.17500
O1982       O  0.33336044  0.66064158  0.10378825    -0.51400
O1983       O  0.36270254  0.63543152  0.07409232    -0.74600
O1984       O  0.36523801  0.67495922  0.12949851    -0.81400
O1985       O  0.31963090  0.60623822  0.15846068    -0.83200
O1986       O  0.39372403  0.67792030  0.15287881    -0.78800
O1987       O  0.32336539  0.63464586  0.13487919    -0.90400
O1988       O  0.38434522  0.61308745  0.07097539    -0.76400
O1989       O  0.38820747  0.63691687  0.13069694    -0.85900
O1990       O  0.36030470  0.60976247  0.13209932    -0.85600
O1991       O  0.36898622  0.65542621  0.18775775    -0.72300
O1992       O  0.34350388  0.62984025  0.18779759    -0.84500
Zr1993     Zr  0.39437678  0.60533642  0.23323406     2.26400
Zr1994     Zr  0.40127501  0.64960999  0.18285817     2.06300
Zr1995     Zr  0.34855847  0.59741402  0.18525660     2.10000
Zr1996     Zr  0.39239801  0.60438716  0.12900497     1.78800
O1997       O  0.32422230  0.59010162  0.22620018    -0.93300
O1998       O  0.42140623  0.61244160  0.10188255    -0.41100
O1999       O  0.38079184  0.59191728  0.18182008    -0.77700
O2000       O  0.40671723  0.61709040  0.17956808    -0.96400
O2001       O  0.38937099  0.63768357  0.23639532    -0.89700
O2002       O  0.36205276  0.60979560  0.23714896    -0.92500
C2003       C  0.37327172  0.62448482  0.05712353     1.01200
C2004       C  0.31349309  0.62067694  0.14310936     1.14200
C2005       C  0.37964224  0.68441221  0.13708277     1.04900
O2006       O  0.42563640  0.65635134  0.14157178    -0.94700
O2007       O  0.42997956  0.64289128  0.21208914    -0.90400
O2008       O  0.42657564  0.61528917  0.23889204    -0.83600
C2009       C  0.43619920  0.62930815  0.22981324     1.11600
O2010       O  0.33203955  0.66420530  0.23780717    -0.96700
Zr2011     Zr  0.35703218  0.64203666  0.23952651     1.88900
O2012       O  0.38734468  0.61179626  0.29480251    -0.73300
O2013       O  0.40944569  0.67418077  0.22326007    -0.52600
O2014       O  0.36526676  0.67189431  0.26403788    -0.97200
O2015       O  0.32888611  0.63119468  0.26666338    -0.54500
O2016       O  0.36574385  0.63422087  0.29791396    -0.73800
C2017       C  0.37664750  0.62264128  0.31187722     0.98500
O2018       O  0.41412619  0.58269976  0.26143960    -0.62600
O2019       O  0.34043179  0.57268590  0.14507899    -0.57400
O2020       O  0.38636830  0.57272631  0.23547353    -0.94100
O2021       O  0.35730817  0.56925948  0.21488311    -0.92600
O2022       O  0.38179181  0.57580814  0.10221721    -0.92900
O2023       O  0.41469592  0.57947863  0.13099086    -0.91700
C2024       C  0.37195565  0.56309972  0.22932201     1.17400
H2025       H  0.35395147  0.60454635  0.11226597     0.33300
H2026       H  0.41953574  0.61432740  0.17686573     0.44200
H2027       H  0.35721101  0.60355723  0.25741527     0.37700
H2028       H  0.36639135  0.66830129  0.19051983     0.34200
H2029       H  0.42087665  0.60685228  0.07830773     0.26000
H2030       H  0.41785548  0.68217696  0.20995974     0.31900
H2031       H  0.37343405  0.66914945  0.28398262     0.37800
H2032       H  0.38168234  0.57806712  0.07677973     0.32300
H2033       H  0.35141769  0.56471872  0.14413857     0.31100
H2034       H  0.31948852  0.57802004  0.21833484     0.32800
H2035       H  0.33231112  0.62007730  0.27998679     0.31800
H2036       H  0.41055302  0.57152134  0.15031487     0.35800
H2037       H  0.42391953  0.57988024  0.24438634     0.28500
H2038       H  0.34009375  0.66689604  0.08486473     0.32700
H2039       H  0.32454958  0.66042912  0.21744161     0.35600
H2040       H  0.33122201  0.56532655  0.15776847     0.28200
H2041       H  0.42033116  0.58922870  0.28084200     0.41100
H2042       H  0.42978052  0.66891625  0.14772878     0.31100
H2043       H  0.42055637  0.62583909  0.09770075     0.38800
H2044       H  0.32137683  0.62648324  0.24704981     0.30600
H2045       H  0.39812042  0.68153731  0.22587876     0.30700
H2046       H  0.32968422  0.67060535  0.12003655     0.30900
Zr2047     Zr  0.35574130  0.64330353  0.63589572     2.17500
O2048       O  0.33359214  0.66244382  0.60488088    -0.51400
O2049       O  0.36169122  0.63573271  0.57453775    -0.74600
O2050       O  0.36535163  0.67566302  0.63005169    -0.81400
O2051       O  0.31959132  0.60671717  0.65785791    -0.83200
O2052       O  0.39384085  0.67883534  0.65328478    -0.78800
O2053       O  0.32291208  0.63596142  0.63789225    -0.90400
O2054       O  0.38537545  0.61555150  0.57206007    -0.76400
O2055       O  0.38797906  0.63848769  0.63228818    -0.85900
O2056       O  0.36047587  0.61073433  0.63225120    -0.85600
O2057       O  0.36832475  0.65637328  0.68876497    -0.72300
O2058       O  0.34305904  0.63010598  0.68770272    -0.84500
Zr2059     Zr  0.39345218  0.60615219  0.73399970     2.26400
Zr2060     Zr  0.40068900  0.65090391  0.68489807     2.06300
Zr2061     Zr  0.34839464  0.59779284  0.68472212     2.10000
Zr2062     Zr  0.39272793  0.60610370  0.63003524     1.78800
O2063       O  0.32353605  0.59109178  0.72491476    -0.93300
O2064       O  0.42203099  0.61492836  0.60494861    -0.41100
O2065       O  0.38069877  0.59285328  0.68189623    -0.77700
O2066       O  0.40633796  0.61847860  0.68133788    -0.96400
O2067       O  0.38819839  0.63850873  0.73751740    -0.89700
O2068       O  0.36104104  0.61032195  0.73727275    -0.92500
C2069       C  0.37332769  0.62577397  0.55782551     1.01200
C2070       C  0.31321145  0.62164305  0.64475989     1.14200
C2071       C  0.37978348  0.68514295  0.63721335     1.04900
O2072       O  0.42523815  0.65639395  0.64330580    -0.94700
O2073       O  0.42891005  0.64393014  0.71577688    -0.90400
O2074       O  0.42553737  0.61585163  0.74072989    -0.83600
C2075       C  0.43513728  0.63000444  0.73251427     1.11600
O2076       O  0.32993221  0.66332692  0.73087552    -0.96700
Zr2077     Zr  0.35580543  0.64262833  0.73968456     1.88900
O2078       O  0.38668382  0.61304278  0.79506243    -0.73300
O2079       O  0.40820968  0.67683212  0.72272702    -0.52600
O2080       O  0.36210244  0.67278617  0.76486210    -0.97200
O2081       O  0.32821634  0.63244158  0.76968458    -0.54500
O2082       O  0.36572341  0.63609696  0.79789282    -0.73800
C2083       C  0.37654271  0.62445691  0.81189986     0.98500
O2084       O  0.41296582  0.58327012  0.76212265    -0.62600
O2085       O  0.34082117  0.57318214  0.64383846    -0.57400
O2086       O  0.38555900  0.57347660  0.73658740    -0.94100
O2087       O  0.35700006  0.56942275  0.71402219    -0.92600
O2088       O  0.38367202  0.57742673  0.60179852    -0.92900
O2089       O  0.41577084  0.58196020  0.63322050    -0.91700
C2090       C  0.37148380  0.56352460  0.72943379     1.17400
H2091       H  0.35439345  0.60548403  0.61204225     0.33300
H2092       H  0.41919284  0.61578689  0.67888110     0.44200
H2093       H  0.35604827  0.60410250  0.75745292     0.37700
H2094       H  0.36567734  0.66925978  0.69136048     0.34200
H2095       H  0.42289211  0.60784430  0.58289854     0.26000
H2096       H  0.41657270  0.68455897  0.70875638     0.31900
H2097       H  0.37444564  0.67162983  0.77533000     0.37800
H2098       H  0.38207650  0.58041992  0.57681982     0.32300
H2099       H  0.35146031  0.56474207  0.64451455     0.31100
H2100       H  0.31990461  0.57828478  0.71947400     0.32800
H2101       H  0.33224002  0.62267631  0.78589953     0.31800
H2102       H  0.41404695  0.57645700  0.65655646     0.35800
H2103       H  0.42309485  0.58080667  0.74558998     0.28500
H2104       H  0.34032167  0.66792432  0.58509888     0.32700
H2105       H  0.32688630  0.66831155  0.75422535     0.35600
H2106       H  0.33082235  0.56629431  0.65525922     0.28200
H2107       H  0.41874179  0.58956023  0.78227361     0.41100
H2108       H  0.43599026  0.66004681  0.65746462     0.31100
H2109       H  0.42029912  0.62781489  0.59740997     0.38800
H2110       H  0.32102922  0.62589062  0.75159207     0.30600
H2111       H  0.39675389  0.68407452  0.72431738     0.30700
H2112       H  0.33079741  0.67289259  0.62067088     0.30900
C2113       C  0.37980856  0.61734832  0.96622628     0.20200
C2114       C  0.38761995  0.60933910  0.93645290    -0.39600
C2115       C  0.38192352  0.61675839  0.90463660     0.19200
C2116       C  0.36929821  0.63093875  0.90281458     0.21900
C2117       C  0.36145258  0.63891357  0.93258676    -0.40100
C2118       C  0.36726747  0.63160499  0.96441017     0.20700
N2119       N  0.38328474  0.61302691  0.99944548    -0.33400
C2120       C  0.37297103  0.62465063  0.01896437    -0.11000
C2121       C  0.36272245  0.63645375  0.99808595    -0.29800
N2122       N  0.36610323  0.63552358  0.86961564    -0.46400
C2123       C  0.37676665  0.62423077  0.85009546    -0.05700
C2124       C  0.38689502  0.61230778  0.87098214    -0.23000
H2125       H  0.39749648  0.59826205  0.93799320     0.18800
H2126       H  0.35166394  0.65006921  0.93106079     0.17600
H2127       H  0.35343032  0.64721196  0.00639288     0.13900
H2128       H  0.39641475  0.60174903  0.86269156     0.13700
H2129       H  0.39227426  0.60286673  0.00827665     0.31900
H2130       H  0.35707194  0.64564565  0.86078898     0.34600
C2131       C  0.36776913  0.62802951  0.40284137     0.20200
C2132       C  0.35903747  0.63548316  0.43223974    -0.39600
C2133       C  0.36609687  0.62999995  0.46450333     0.19200
C2134       C  0.38066378  0.61789820  0.46711106     0.21900
C2135       C  0.38932166  0.61030415  0.43769498    -0.40100
C2136       C  0.38232096  0.61589785  0.40535914     0.20700
N2137       N  0.36402014  0.63169108  0.36940295    -0.33400
C2138       C  0.37625356  0.62191549  0.35025266    -0.11000
C2139       C  0.38787614  0.61174055  0.37176460    -0.29800
N2140       N  0.38498558  0.61509153  0.50061392    -0.46400
C2141       C  0.37312350  0.62545988  0.51953721    -0.05700
C2142       C  0.36107306  0.63498367  0.49793105    -0.23000
H2143       H  0.34775326  0.64507462  0.43010236     0.18800
H2144       H  0.40081177  0.60096259  0.43986199     0.17600
H2145       H  0.39902951  0.60283128  0.36395215     0.13900
H2146       H  0.35017995  0.64425106  0.50558922     0.13700
H2147       H  0.35380935  0.64050502  0.36019386     0.31900
H2148       H  0.39542117  0.60660469  0.51002443     0.34600
C2149       C  0.38074924  0.48308806  0.75656677     0.20200
C2150       C  0.39144339  0.49911898  0.75441054    -0.39600
C2151       C  0.38171218  0.51562033  0.74953141     0.19200
C2152       C  0.36280758  0.51603151  0.74699823     0.21900
C2153       C  0.35213590  0.50008981  0.74976940    -0.40100
C2154       C  0.36183340  0.48366268  0.75463862     0.20700
N2155       N  0.38661620  0.46567852  0.76084049    -0.33400
C2156       C  0.37128441  0.45518976  0.76205474    -0.11000
C2157       C  0.35558257  0.46593599  0.75829859    -0.29800
N2158       N  0.35684754  0.53314887  0.74042597    -0.46400
C2159       C  0.37200075  0.54384712  0.73883429    -0.05700
C2160       C  0.38780885  0.53342695  0.74471753    -0.23000
H2161       H  0.40623588  0.49873816  0.75591986     0.18800
H2162       H  0.33735540  0.50042283  0.74779148     0.17600
H2163       H  0.34147760  0.46138942  0.75862924     0.13900
H2164       H  0.40186649  0.53809828  0.74406024     0.13700
H2165       H  0.40014336  0.46127130  0.76381695     0.31900
H2166       H  0.34328399  0.53724562  0.73656449     0.34600
C2167       C  0.36615257  0.36823175  0.53258346     0.20200
C2168       C  0.35979672  0.36035118  0.56356772    -0.39600
C2169       C  0.36715420  0.36773291  0.59443639     0.19200
C2170       C  0.37983183  0.38188495  0.59462335     0.21900
C2171       C  0.38614282  0.38978054  0.56368990    -0.40100
C2172       C  0.37882944  0.38238009  0.53285176     0.20700
N2173       N  0.36165694  0.36346961  0.49966467    -0.33400
C2174       C  0.37164568  0.37468757  0.47897437    -0.11000
C2175       C  0.38243775  0.38664989  0.49880696    -0.29800
N2176       N  0.38475102  0.38636373  0.62741517    -0.46400
C2177       C  0.37507142  0.37495710  0.64818291    -0.05700
C2178       C  0.36398763  0.36316255  0.62853675    -0.23000
H2179       H  0.34995809  0.34923270  0.56366581     0.18800
H2180       H  0.39611283  0.40078058  0.56360058     0.17600
H2181       H  0.39190536  0.39695451  0.48949192     0.13900
H2182       H  0.35480283  0.35263996  0.63800343     0.13700
H2183       H  0.35261372  0.35312373  0.49181794     0.31900
H2184       H  0.39400605  0.39654466  0.63514387     0.34600
C2185       C  0.37026031  0.36629560  0.03193209     0.20200
C2186       C  0.36554631  0.35661901  0.06213076    -0.39600
C2187       C  0.37241378  0.36392422  0.09345186     0.19200
C2188       C  0.38322553  0.37955835  0.09464919     0.21900
C2189       C  0.38795053  0.38917196  0.06448969    -0.40100
C2190       C  0.38101559  0.38195622  0.03326697     0.20700
N2191       N  0.36571234  0.36216377  0.99881181    -0.33400
C2192       C  0.37377472  0.37528772  0.97912410    -0.11000
C2193       C  0.38329898  0.38789523  0.99972616    -0.29800
N2194       N  0.38732315  0.38417991  0.12771423    -0.46400
C2195       C  0.37885291  0.37150594  0.14770891    -0.05700
C2196       C  0.36958499  0.35855479  0.12726315    -0.23000
H2197       H  0.35702497  0.34445371  0.06136159     0.18800
H2198       H  0.39627216  0.40147368  0.06528817     0.17600
H2199       H  0.39123843  0.39959565  0.99118533     0.13900
H2200       H  0.36126329  0.34717609  0.13604873     0.13700
H2201       H  0.35805974  0.35090530  0.99012258     0.31900
H2202       H  0.39479434  0.39561050  0.13615227     0.34600
C2203       C  0.36359380  0.48308121  0.25876395     0.20200
C2204       C  0.35306083  0.49916115  0.25635651    -0.39600
C2205       C  0.36278669  0.51537220  0.24984359     0.19200
C2206       C  0.38164829  0.51568982  0.24658361     0.21900
C2207       C  0.39220938  0.49950365  0.24847136    -0.40100
C2208       C  0.38240149  0.48315780  0.25446696     0.20700
N2209       N  0.35748876  0.46598123  0.26485999    -0.33400
C2210       C  0.37241615  0.45489084  0.26401269    -0.11000
C2211       C  0.38825741  0.46511598  0.25748999    -0.29800
N2212       N  0.38750641  0.53292221  0.24026518    -0.46400
C2213       C  0.37218237  0.54348440  0.23877842    -0.05700
C2214       C  0.35654079  0.53300789  0.24465654    -0.23000
H2215       H  0.33831475  0.49903438  0.25904658     0.18800
H2216       H  0.40692372  0.49960735  0.24524743     0.17600
H2217       H  0.40217559  0.46007729  0.25576838     0.13900
H2218       H  0.34245227  0.53764015  0.24449807     0.13700
H2219       H  0.34393699  0.46209238  0.26934870     0.31900
H2220       H  0.40098084  0.53711844  0.23594154     0.34600
C2221       C  0.23408921  0.36847333  0.88203795     0.20200
C2222       C  0.25012667  0.35771490  0.88048937    -0.39600
C2223       C  0.26652413  0.36737024  0.87455662     0.19200
C2224       C  0.26681044  0.38625634  0.87029245     0.21900
C2225       C  0.25089986  0.39701969  0.87259047    -0.40100
C2226       C  0.23459858  0.38740652  0.87871203     0.20700
N2227       N  0.21674678  0.36267756  0.88690279    -0.33400
C2228       C  0.20621840  0.37808596  0.88715899    -0.11000
C2229       C  0.21692812  0.39375303  0.88226263    -0.29800
N2230       N  0.28382644  0.39210608  0.86321549    -0.46400
C2231       C  0.29463812  0.37692826  0.86327041    -0.05700
C2232       C  0.28434895  0.36119537  0.87050114    -0.23000
H2233       H  0.24983582  0.34291600  0.88329285     0.18800
H2234       H  0.25116800  0.41180373  0.86945022     0.17600
H2235       H  0.21238258  0.40792184  0.88160098     0.13900
H2236       H  0.28915164  0.34712221  0.87153453     0.13700
H2237       H  0.21240137  0.34915632  0.89069838     0.31900
H2238       H  0.28781472  0.40563642  0.85825495     0.34600
C2239       C  0.11749447  0.37682211  0.65384817     0.20200
C2240       C  0.11200982  0.38595008  0.68433374    -0.39600
C2241       C  0.11890779  0.37875690  0.71556801     0.19200
C2242       C  0.13037993  0.36359857  0.71663786     0.21900
C2243       C  0.13576601  0.35435804  0.68609774    -0.40100
C2244       C  0.12889785  0.36160445  0.65473712     0.20700
N2245       N  0.11337450  0.38141271  0.62080337    -0.33400
C2246       C  0.12225995  0.36906395  0.60038046    -0.11000
C2247       C  0.13201312  0.35643962  0.62066090    -0.29800
N2248       N  0.13512819  0.35964537  0.74976635    -0.46400
C2249       C  0.12648257  0.37237484  0.76976417    -0.05700
C2250       C  0.11629544  0.38449444  0.74929210    -0.23000
H2251       H  0.10318174  0.39791149  0.68376822     0.18800
H2252       H  0.14480547  0.34255822  0.68666045     0.17600
H2253       H  0.14063730  0.34528459  0.61163940     0.13900
H2254       H  0.10794502  0.39592958  0.75801008     0.13700
H2255       H  0.10538629  0.39252313  0.61265613     0.31900
H2256       H  0.14346431  0.34886490  0.75823590     0.34600
C2257       C  0.11847915  0.38397682  0.21675918     0.20200
C2258       C  0.10994843  0.39148915  0.18724688    -0.39600
C2259       C  0.11748778  0.38626517  0.15515963     0.19200
C2260       C  0.13232682  0.37445450  0.15294981     0.21900
C2261       C  0.14090446  0.36705631  0.18238739    -0.40100
C2262       C  0.13338988  0.37227065  0.21438068     0.20700
N2263       N  0.11383027  0.38661084  0.25015922    -0.33400
C2264       C  0.12589236  0.37655312  0.26910902    -0.11000
C2265       C  0.13831163  0.36737825  0.24773048    -0.29800
N2266       N  0.13652621  0.37102599  0.11968390    -0.46400
C2267       C  0.12432083  0.38068667  0.10041055    -0.05700
C2268       C  0.11223664  0.39050878  0.12154524    -0.23000
H2269       H  0.09822246  0.40054911  0.18914057     0.18800
H2270       H  0.15244789  0.35776027  0.18046684     0.17600
H2271       H  0.14944008  0.35844328  0.25551919     0.13900
H2272       H  0.10093481  0.39914429  0.11345626     0.13700
H2273       H  0.10307310  0.39472888  0.25946660     0.31900
H2274       H  0.14690411  0.36232867  0.11068130     0.34600
C2275       C  0.26585605  0.36872825  0.36943049     0.20200
C2276       C  0.24966483  0.35835284  0.36705098    -0.39600
C2277       C  0.23336259  0.36790836  0.37410285     0.19200
C2278       C  0.23327411  0.38634203  0.38321884     0.21900
C2279       C  0.24941845  0.39676909  0.38528841    -0.40100
C2280       C  0.26568219  0.38727359  0.37774096     0.20700
N2281       N  0.28301299  0.36300713  0.36268296    -0.33400
C2282       C  0.29380547  0.37808326  0.36591801    -0.11000
C2283       C  0.28348510  0.39349084  0.37539809    -0.29800
N2284       N  0.21615016  0.39209346  0.38974315    -0.46400
C2285       C  0.20517128  0.37727096  0.38468801    -0.05700
C2286       C  0.21540564  0.36192073  0.37461501    -0.23000
H2287       H  0.24975050  0.34392250  0.36001505     0.18800
H2288       H  0.24929993  0.41124555  0.39198704     0.17600
H2289       H  0.28829464  0.40743862  0.37912033     0.13900
H2290       H  0.21046654  0.34813079  0.36959397     0.13700
H2291       H  0.28702116  0.34986732  0.35462839     0.31900
H2292       H  0.21221127  0.40525257  0.39783423     0.34600
C2293       C  0.23214988  0.63006920  0.62593790     0.20200
C2294       C  0.24783618  0.64113125  0.63017639    -0.39600
C2295       C  0.26463617  0.63167225  0.63238402     0.19200
C2296       C  0.26560261  0.61267482  0.63083701     0.21900
C2297       C  0.25000935  0.60167772  0.62633673    -0.40100
C2298       C  0.23331196  0.61110202  0.62383600     0.20700
N2299       N  0.21462425  0.63561658  0.62241457    -0.33400
C2300       C  0.20462024  0.62006586  0.61767276    -0.11000
C2301       C  0.21585527  0.60451815  0.61842699    -0.29800
N2302       N  0.28295941  0.60689169  0.63444088    -0.46400
C2303       C  0.29329967  0.62224453  0.63803464    -0.05700
C2304       C  0.28236816  0.63804477  0.63674501    -0.23000
H2305       H  0.24702633  0.65597961  0.63154299     0.18800
H2306       H  0.25083595  0.58683353  0.62477081     0.17600
H2307       H  0.21182748  0.59030954  0.61485723     0.13900
H2308       H  0.28673087  0.65219050  0.63963473     0.13700
H2309       H  0.20983417  0.64915541  0.62217430     0.31900
H2310       H  0.28750251  0.59326411  0.63466491     0.34600
C2311       C  0.11901430  0.51414118  0.50493579     0.20200
C2312       C  0.10835436  0.49836564  0.49858258    -0.39600
C2313       C  0.11797974  0.48161385  0.49703444     0.19200
C2314       C  0.13679909  0.48072030  0.50102045     0.21900
C2315       C  0.14741019  0.49642501  0.50768144    -0.40100
C2316       C  0.13777870  0.51309965  0.50961466     0.20700
N2317       N  0.11318320  0.53165758  0.50821078    -0.33400
C2318       C  0.12834049  0.54178304  0.51542676    -0.11000
C2319       C  0.14391849  0.53064540  0.51647804    -0.29800
N2320       N  0.14278721  0.46334740  0.49718289    -0.46400
C2321       C  0.12767769  0.45299397  0.49113293    -0.05700
C2322       C  0.11191187  0.46388554  0.49097276    -0.23000
H2323       H  0.09366115  0.49907254  0.49514671     0.18800
H2324       H  0.16210335  0.49571086  0.51114525     0.17600
H2325       H  0.15784444  0.53480250  0.52210448     0.13900
H2326       H  0.09800855  0.45951673  0.48576853     0.13700
H2327       H  0.09968712  0.53635088  0.50664281     0.31900
H2328       H  0.15635776  0.45882579  0.49821673     0.34600
C2329       C  0.11690478  0.62116699  0.84799841     0.20200
C2330       C  0.10938533  0.61402090  0.81720797    -0.39600
C2331       C  0.11655979  0.62112187  0.78620703     0.19200
C2332       C  0.13023301  0.63429208  0.78563289     0.21900
C2333       C  0.13779388  0.64143690  0.81649760    -0.40100
C2334       C  0.13055916  0.63436597  0.84757988     0.20700
N2335       N  0.11235656  0.61675308  0.88087641    -0.33400
C2336       C  0.12317895  0.62727768  0.90154665    -0.11000
C2337       C  0.13472153  0.63840003  0.88170902    -0.29800
N2338       N  0.13474201  0.63857424  0.75258844    -0.46400
C2339       C  0.12381167  0.62798075  0.73215652    -0.05700
C2340       C  0.11230367  0.61700192  0.75226836    -0.23000
H2341       H  0.09872382  0.60369551  0.81735347     0.18800
H2342       H  0.14848530  0.65173018  0.81635479     0.17600
H2343       H  0.14480642  0.64815570  0.89105092     0.13900
H2344       H  0.10227285  0.60711631  0.74320592     0.13700
H2345       H  0.10248654  0.60725773  0.88873026     0.31900
H2346       H  0.14467694  0.64794266  0.74449912     0.34600
C2347       C  0.11634961  0.61671209  0.28480639     0.20200
C2348       C  0.10777172  0.60900513  0.31402429    -0.39600
C2349       C  0.11521133  0.61405110  0.34637112     0.19200
C2350       C  0.12989994  0.62599245  0.34905781     0.21900
C2351       C  0.13844343  0.63367000  0.31992996    -0.40100
C2352       C  0.13114817  0.62849947  0.28768011     0.20700
N2353       N  0.11203436  0.61398056  0.25124277    -0.33400
C2354       C  0.12419348  0.62404998  0.23267139    -0.11000
C2355       C  0.13638667  0.63329174  0.25447371    -0.29800
N2356       N  0.13425416  0.62895349  0.38243543    -0.46400
C2357       C  0.12231766  0.61886757  0.40136615    -0.05700
C2358       C  0.11022645  0.60922676  0.37983911    -0.23000
H2359       H  0.09622056  0.59976715  0.31170851     0.18800
H2360       H  0.14995006  0.64296518  0.32225415     0.17600
H2361       H  0.14757134  0.64219740  0.24706305     0.13900
H2362       H  0.09913668  0.60028377  0.38758664     0.13700
H2363       H  0.10149225  0.60568995  0.24157634     0.31900
H2364       H  0.14464319  0.63754524  0.39175637     0.34600
C2365       C  0.26620323  0.63152036  0.12670987     0.20200
C2366       C  0.25055920  0.64270829  0.12259134    -0.39600
C2367       C  0.23365861  0.63339163  0.12093111     0.19200
C2368       C  0.23258728  0.61441807  0.12278399     0.21900
C2369       C  0.24812385  0.60332038  0.12709428    -0.40100
C2370       C  0.26489025  0.61259113  0.12914917     0.20700
N2371       N  0.28380057  0.63688281  0.13005628    -0.33400
C2372       C  0.29364748  0.62124079  0.13518440    -0.11000
C2373       C  0.28227719  0.60584567  0.13461115    -0.29800
N2374       N  0.21520284  0.60873045  0.11936713    -0.46400
C2375       C  0.20492383  0.62410648  0.11549153    -0.05700
C2376       C  0.21592603  0.63985025  0.11659555    -0.23000
H2377       H  0.25146790  0.65753313  0.12093942     0.18800
H2378       H  0.24720686  0.58849864  0.12887166     0.17600
H2379       H  0.28617310  0.59162849  0.13843574     0.13900
H2380       H  0.21163093  0.65398476  0.11326621     0.13700
H2381       H  0.28872191  0.65036477  0.13008034     0.31900
H2382       H  0.21061058  0.59512828  0.11919503     0.34600
C2383       C  0.13708640  0.51773322  0.00512467     0.20200
C2384       C  0.14787169  0.50175855  0.00377440    -0.39600
C2385       C  0.13848504  0.48537854  0.99642643     0.19200
C2386       C  0.11972895  0.48489390  0.99130712     0.21900
C2387       C  0.10894162  0.50092321  0.99239703    -0.40100
C2388       C  0.11838058  0.51738070  0.99935197     0.20700
N2389       N  0.14275945  0.53491563  0.01215132    -0.33400
C2390       C  0.12763376  0.54571650  0.01068262    -0.11000
C2391       C  0.11212042  0.53526843  0.00259856    -0.29800
N2392       N  0.11410614  0.46757875  0.98498513    -0.46400
C2393       C  0.12942375  0.45701748  0.98568399    -0.05700
C2394       C  0.14491068  0.46765179  0.99261718    -0.23000
H2395       H  0.16251558  0.50207134  0.00810216     0.18800
H2396       H  0.09429306  0.50059819  0.98815280     0.17600
H2397       H  0.09811699  0.54001860  0.00043671     0.13900
H2398       H  0.15897102  0.46303206  0.99445659     0.13700
H2399       H  0.15611823  0.53901456  0.01805672     0.31900
H2400       H  0.10074922  0.46326732  0.97966070     0.34600
C2401       C  0.51726884  0.36180316  0.75552918     0.20200
C2402       C  0.50157574  0.35119714  0.76120986    -0.39600
C2403       C  0.48483160  0.36012854  0.75585059     0.19200
C2404       C  0.48366629  0.37829131  0.74547501     0.21900
C2405       C  0.49949175  0.38897103  0.73973702    -0.40100
C2406       C  0.51637859  0.37999683  0.74522897     0.20700
N2407       N  0.53462420  0.35673878  0.76161529    -0.33400
C2408       C  0.54510592  0.37174105  0.75545159    -0.11000
C2409       C  0.53421957  0.38656951  0.74483705    -0.29800
N2410       N  0.46603687  0.38392401  0.74533094    -0.46400
C2411       C  0.45602956  0.36926299  0.75613248    -0.05700
C2412       C  0.46735049  0.35417653  0.76257010    -0.23000
H2413       H  0.50235164  0.33718862  0.77054319     0.18800
H2414       H  0.49871232  0.40336626  0.73284427     0.17600
H2415       H  0.53862821  0.40047328  0.73946570     0.13900
H2416       H  0.46343480  0.34096267  0.77308021     0.13700
H2417       H  0.53899384  0.34396995  0.77087735     0.31900
H2418       H  0.46125183  0.39719956  0.74036437     0.34600
C2419       C  0.51701310  0.36173024  0.25645061     0.20200
C2420       C  0.50139745  0.35086051  0.26131019    -0.39600
C2421       C  0.48457035  0.36000142  0.25862183     0.19200
C2422       C  0.48329599  0.37857942  0.25136513     0.21900
C2423       C  0.49901371  0.38952416  0.24658793    -0.40100
C2424       C  0.51595583  0.38035516  0.24944851     0.20700
N2425       N  0.53447114  0.35647229  0.26069420    -0.33400
C2426       C  0.54481045  0.37179053  0.25674304    -0.11000
C2427       C  0.53375244  0.38700850  0.24927093    -0.29800
N2428       N  0.46566004  0.38410492  0.25220697    -0.46400
C2429       C  0.45571003  0.36894563  0.26039275    -0.05700
C2430       C  0.46710019  0.35367873  0.26453436    -0.23000
H2431       H  0.50231370  0.33643492  0.26794849     0.18800
H2432       H  0.49813090  0.40418458  0.24213335     0.17600
H2433       H  0.53803428  0.40116082  0.24636412     0.13900
H2434       H  0.46319124  0.33994518  0.27233268     0.13700
H2435       H  0.53901361  0.34334225  0.26754543     0.31900
H2436       H  0.46079267  0.39751157  0.24910273     0.34600
C2437       C  0.62087447  0.38102516  0.52611124     0.20200
C2438       C  0.61336373  0.38928644  0.55589822    -0.39600
C2439       C  0.62050473  0.38326715  0.58772733     0.19200
C2440       C  0.63410034  0.37003118  0.58962029     0.21900
C2441       C  0.64170820  0.36182618  0.55975345    -0.40100
C2442       C  0.63454294  0.36785576  0.52786366     0.20700
N2443       N  0.61621661  0.38427038  0.49295938    -0.33400
C2444       C  0.62699462  0.37315905  0.47330866    -0.11000
C2445       C  0.63867092  0.36267966  0.49409762    -0.29800
N2446       N  0.63812631  0.36630494  0.62296190    -0.46400
C2447       C  0.62698896  0.37719369  0.64243485    -0.05700
C2448       C  0.61585837  0.38807571  0.62137022    -0.23000
H2449       H  0.60261463  0.39951208  0.55437986     0.18800
H2450       H  0.65227655  0.35141262  0.56126513     0.17600
H2451       H  0.64876630  0.35270813  0.48567652     0.13900
H2452       H  0.60553162  0.39786453  0.62953591     0.13700
H2453       H  0.60632280  0.39357961  0.48425509     0.31900
H2454       H  0.64767571  0.35670334  0.63190223     0.34600
C2455       C  0.63284079  0.37357747  0.09010947     0.20200
C2456       C  0.64130572  0.36598916  0.06061188    -0.39600
C2457       C  0.63487641  0.37241114  0.02853992     0.19200
C2458       C  0.62118799  0.38553071  0.02618436     0.21900
C2459       C  0.61265680  0.39308392  0.05573774    -0.40100
C2460       C  0.61898608  0.38652590  0.08787382     0.20700
N2461       N  0.63643514  0.36957112  0.12341288    -0.33400
C2462       C  0.62480352  0.37996566  0.14271133    -0.11000
C2463       C  0.61359443  0.39072620  0.12149341    -0.29800
N2464       N  0.61719924  0.38896496  0.99274381    -0.46400
C2465       C  0.62823102  0.37778508  0.97368079    -0.05700
C2466       C  0.63956653  0.36730747  0.99507371    -0.23000
H2467       H  0.65195290  0.35567426  0.06252434     0.18800
H2468       H  0.60177061  0.40314132  0.05380556     0.17600
H2469       H  0.60300375  0.40025703  0.12952309     0.13900
H2470       H  0.64954804  0.35708700  0.98725239     0.13700
H2471       H  0.64624138  0.36025386  0.13243802     0.31900
H2472       H  0.60725247  0.39806574  0.98349013     0.34600
C2473       C  0.51618478  0.62053569  0.74484109     0.20200
C2474       C  0.50006422  0.61048754  0.75148797    -0.39600
C2475       C  0.48349058  0.62030793  0.74786345     0.19200
C2476       C  0.48314302  0.63860583  0.73806285     0.21900
C2477       C  0.49912625  0.64855941  0.73153967    -0.40100
C2478       C  0.51552915  0.63887194  0.73543463     0.20700
N2479       N  0.53365344  0.61438350  0.74458068    -0.33400
C2480       C  0.54399540  0.62902590  0.73489545    -0.11000
C2481       C  0.53310099  0.64446449  0.72917457    -0.29800
N2482       N  0.46590868  0.64450444  0.73350511    -0.46400
C2483       C  0.45495726  0.62995393  0.74036785    -0.05700
C2484       C  0.46542547  0.61459495  0.74979744    -0.23000
H2485       H  0.50036597  0.59603376  0.75807189     0.18800
H2486       H  0.49879595  0.66273444  0.72305065     0.17600
H2487       H  0.53742175  0.65789128  0.72031649     0.13900
H2488       H  0.46054687  0.60083073  0.75499829     0.13700
H2489       H  0.53815955  0.60099598  0.74941784     0.31900
H2490       H  0.46190019  0.65743051  0.72444425     0.34600
C2491       C  0.64035946  0.51772729  0.74837641     0.20200
C2492       C  0.65064777  0.50143307  0.74590497    -0.39600
C2493       C  0.64074913  0.48497160  0.74891237     0.19200
C2494       C  0.62198486  0.48471075  0.75368757     0.21900
C2495       C  0.61172196  0.50103502  0.75678359    -0.40100
C2496       C  0.62165835  0.51753771  0.75402277     0.20700
N2497       N  0.64635974  0.53503319  0.74371165    -0.33400
C2498       C  0.63140660  0.54604900  0.74632449    -0.11000
C2499       C  0.61577222  0.53561678  0.75334719    -0.29800
N2500       N  0.61588058  0.46727728  0.75611718    -0.46400
C2501       C  0.63091805  0.45636158  0.75357406    -0.05700
C2502       C  0.64666988  0.46694720  0.74899187    -0.23000
H2503       H  0.66528597  0.50155900  0.74161362     0.18800
H2504       H  0.59705083  0.50089979  0.76064678     0.17600
H2505       H  0.60178740  0.54046989  0.75505416     0.13900
H2506       H  0.66066701  0.46212088  0.74736828     0.13700
H2507       H  0.65967048  0.53900663  0.73732126     0.31900
H2508       H  0.60247515  0.46310358  0.76121076     0.34600
C2509       C  0.51723268  0.63721589  0.23847916     0.20200
C2510       C  0.50142660  0.64810993  0.23610084    -0.39600
C2511       C  0.48474291  0.63884049  0.23980247     0.19200
C2512       C  0.48379553  0.62009634  0.24556508     0.21900
C2513       C  0.49970369  0.60915401  0.24806095    -0.40100
C2514       C  0.51649512  0.61847176  0.24435914     0.20700
N2515       N  0.53454506  0.64267806  0.23331074    -0.33400
C2516       C  0.54513467  0.62741866  0.23595183    -0.11000
C2517       C  0.53436434  0.61197528  0.24307721    -0.29800
N2518       N  0.46621740  0.61441664  0.24508359    -0.46400
C2519       C  0.45596777  0.62962710  0.23849578    -0.05700
C2520       C  0.46709722  0.64512652  0.23539717    -0.23000
H2521       H  0.50206325  0.66266758  0.23045803     0.18800
H2522       H  0.49903669  0.59440291  0.25144353     0.17600
H2523       H  0.53886669  0.59783968  0.24522552     0.13900
H2524       H  0.46291937  0.65894801  0.22862308     0.13700
H2525       H  0.53884534  0.65597850  0.22721808     0.31900
H2526       H  0.46157948  0.60086876  0.24680509     0.34600
C2527       C  0.62131651  0.61862206  0.96783534     0.20200
C2528       C  0.61207668  0.61201465  0.93824888    -0.39600
C2529       C  0.61923586  0.61753033  0.90616472     0.19200
C2530       C  0.63449208  0.62872176  0.90386153     0.21900
C2531       C  0.64376830  0.63534177  0.93348695    -0.40100
C2532       C  0.63651855  0.62990119  0.96564767     0.20700
N2533       N  0.61688649  0.61564323  0.00117923    -0.33400
C2534       C  0.62920772  0.62517829  0.02057280    -0.11000
C2535       C  0.64177207  0.63424632  0.99934630    -0.29800
N2536       N  0.63836395  0.63225462  0.87043104    -0.46400
C2537       C  0.62548449  0.62329079  0.85129371    -0.05700
C2538       C  0.61330132  0.61389211  0.87265900    -0.23000
H2539       H  0.60006546  0.60337669  0.94011625     0.18800
H2540       H  0.65559231  0.64423783  0.93160669     0.17600
H2541       H  0.65306715  0.64290497  0.00742460     0.13900
H2542       H  0.60158508  0.60575899  0.86479780     0.13700
H2543       H  0.60593959  0.60775493  0.01017631     0.31900
H2544       H  0.64907094  0.64040230  0.86121852     0.34600
C2545       C  0.62135832  0.61760227  0.40485081     0.20200
C2546       C  0.61414028  0.61015789  0.43545957    -0.39600
C2547       C  0.62047546  0.61810791  0.46657109     0.19200
C2548       C  0.63297003  0.63242210  0.46733464     0.21900
C2549       C  0.64011988  0.63992714  0.43671201    -0.40100
C2550       C  0.63385928  0.63191177  0.40560207     0.20700
N2551       N  0.61737797  0.61267745  0.37185669    -0.33400
C2552       C  0.62737943  0.62405657  0.35159366    -0.11000
C2553       C  0.63790753  0.63611218  0.37171473    -0.29800
N2554       N  0.63698928  0.63730528  0.50034783    -0.46400
C2555       C  0.62699465  0.62591175  0.52060871    -0.05700
C2556       C  0.61648694  0.61384979  0.50045314    -0.23000
H2557       H  0.60436446  0.59898241  0.43510774     0.18800
H2558       H  0.64985993  0.65113296  0.43705715     0.17600
H2559       H  0.64702576  0.64680338  0.36269645     0.13900
H2560       H  0.60726139  0.60324652  0.50944598     0.13700
H2561       H  0.60824661  0.60247905  0.36367887     0.31900
H2562       H  0.64600361  0.64760609  0.50853071     0.34600
C2563       C  0.62335993  0.51779558  0.24891748     0.20200
C2564       C  0.61249327  0.50185493  0.24850798    -0.39600
C2565       C  0.62200650  0.48509766  0.25065709     0.19200
C2566       C  0.64088326  0.48432908  0.25344008     0.21900
C2567       C  0.65176301  0.50025255  0.25331469    -0.40100
C2568       C  0.64226605  0.51698931  0.25073712     0.20700
N2569       N  0.61765714  0.53531416  0.24610791    -0.33400
C2570       C  0.63302894  0.54575426  0.24542119    -0.11000
C2571       C  0.64867146  0.53479222  0.24832043    -0.29800
N2572       N  0.64657160  0.46683884  0.25685500    -0.46400
C2573       C  0.63125483  0.45631135  0.25587578    -0.05700
C2574       C  0.61564257  0.46722787  0.25182945    -0.23000
H2575       H  0.59771899  0.50246189  0.24662589     0.18800
H2576       H  0.66654269  0.49964757  0.25503010     0.17600
H2577       H  0.66281333  0.53918996  0.24740812     0.13900
H2578       H  0.60150989  0.46276740  0.25156132     0.13700
H2579       H  0.60417127  0.53981313  0.24292339     0.31900
H2580       H  0.66003036  0.46236950  0.26055471     0.34600
C2581       C  0.01585639  0.61976640  0.49975415     0.20200
C2582       C  0.99988894  0.60902700  0.49601357    -0.39600
C2583       C  0.98315698  0.61824045  0.50173311     0.19200
C2584       C  0.98251838  0.63666912  0.51077795     0.21900
C2585       C  0.99837473  0.64736182  0.51441369    -0.40100
C2586       C  0.01498352  0.63823508  0.50842006     0.20700
N2587       N  0.03343960  0.61402445  0.49890967    -0.33400
C2588       C  0.04375775  0.62894707  0.50741742    -0.11000
C2589       C  0.03265436  0.64431280  0.51301080    -0.29800
N2590       N  0.96524077  0.64201132  0.51702298    -0.46400
C2591       C  0.95456718  0.62698080  0.51185956    -0.05700
C2592       C  0.96526663  0.61183195  0.50211406    -0.23000
H2593       H  0.00046957  0.59446673  0.49015334     0.18800
H2594       H  0.99784557  0.66163963  0.52246798     0.17600
H2595       H  0.03687244  0.65781613  0.52188499     0.13900
H2596       H  0.96068096  0.59789347  0.49739170     0.13700
H2597       H  0.03803130  0.60055081  0.49517873     0.31900
H2598       H  0.96103561  0.65504152  0.52538315     0.34600
C2599       C  0.76653076  0.61109974  0.62592076     0.20200
C2600       C  0.75035976  0.60076112  0.62717943    -0.39600
C2601       C  0.73403280  0.61089695  0.62839911     0.19200
C2602       C  0.73369958  0.62991950  0.62781040     0.21900
C2603       C  0.74995632  0.64031537  0.62705160    -0.40100
C2604       C  0.76637427  0.63013429  0.62644547     0.20700
N2605       N  0.78372702  0.60464296  0.62329495    -0.33400
C2606       C  0.79473143  0.61963575  0.62262042    -0.11000
C2607       C  0.78440814  0.63580347  0.62480825    -0.29800
N2608       N  0.71631763  0.63616141  0.62968304    -0.46400
C2609       C  0.70560024  0.62095065  0.63208470    -0.05700
C2610       C  0.71622664  0.60500055  0.63138345    -0.23000
H2611       H  0.75047610  0.58587639  0.62730915     0.18800
H2612       H  0.74984680  0.65519905  0.62701187     0.17600
H2613       H  0.78936829  0.64979871  0.62334661     0.13900
H2614       H  0.71157119  0.59094918  0.63401475     0.13700
H2615       H  0.78769181  0.59088110  0.62101733     0.31900
H2616       H  0.71209042  0.64987601  0.63097729     0.34600
C2617       C  0.98273918  0.63902049  0.00724159     0.20200
C2618       C  0.99835953  0.65011899  0.00996372    -0.39600
C2619       C  0.01516607  0.64108508  0.00594056     0.19200
C2620       C  0.01638176  0.62238124  0.99949554     0.21900
C2621       C  0.00067387  0.61123910  0.99669991    -0.40100
C2622       C  0.98377171  0.62030709  0.00079926     0.20700
N2623       N  0.96538111  0.64417557  0.01304271    -0.33400
C2624       C  0.95509422  0.62873141  0.01037048    -0.11000
C2625       C  0.96607118  0.61349750  0.00243896    -0.29800
N2626       N  0.03398605  0.61685456  0.00038135    -0.46400
C2627       C  0.04396690  0.63209247  0.00806594    -0.05700
C2628       C  0.03267785  0.64749888  0.01125801    -0.23000
H2629       H  0.99750492  0.66460980  0.01635299     0.18800
H2630       H  0.00157832  0.59649739  0.99307638     0.17600
H2631       H  0.96184576  0.59927765  0.00022703     0.13900
H2632       H  0.03661795  0.66126346  0.01907932     0.13700
H2633       H  0.96088238  0.65736365  0.01977599     0.31900
H2634       H  0.03876713  0.60333859  0.99860448     0.34600
C2635       C  0.87092803  0.63433616  0.78338089     0.20200
C2636       C  0.86532831  0.64342945  0.81381057    -0.39600
C2637       C  0.87109183  0.63536843  0.84508655     0.19200
C2638       C  0.88176020  0.61960636  0.84603285     0.21900
C2639       C  0.88741771  0.61059009  0.81566486    -0.40100
C2640       C  0.88153619  0.61854249  0.78446132     0.20700
N2641       N  0.86696187  0.63888869  0.75029211    -0.33400
C2642       C  0.87515726  0.62583789  0.73040751    -0.11000
C2643       C  0.88435327  0.61296610  0.75078441    -0.29800
N2644       N  0.88503408  0.61444407  0.87899588    -0.46400
C2645       C  0.87625128  0.62696542  0.89908381    -0.05700
C2646       C  0.86745093  0.64024105  0.87894050    -0.23000
H2647       H  0.85689666  0.65567552  0.81321282     0.18800
H2648       H  0.89557466  0.59815795  0.81628218     0.17600
H2649       H  0.89203969  0.60106906  0.74207470     0.13900
H2650       H  0.85928397  0.65175513  0.88790356     0.13700
H2651       H  0.85926175  0.65013518  0.74181266     0.31900
H2652       H  0.89246414  0.60297068  0.88725824     0.34600
C2653       C  0.87836898  0.61392521  0.34567341     0.20200
C2654       C  0.88573585  0.60649469  0.31496934    -0.39600
C2655       C  0.87939217  0.61431013  0.28381780     0.19200
C2656       C  0.86678311  0.62854033  0.28315556     0.21900
C2657       C  0.85937013  0.63594581  0.31385096    -0.40100
C2658       C  0.86560073  0.62801362  0.34499862     0.20700
N2659       N  0.88246098  0.60919689  0.37868671    -0.33400
C2660       C  0.87219425  0.62038112  0.39913647    -0.11000
C2661       C  0.86140999  0.63218125  0.37901208    -0.29800
N2662       N  0.86311529  0.63361383  0.25016944    -0.46400
C2663       C  0.87343877  0.62244823  0.22975506    -0.05700
C2664       C  0.88373886  0.61023970  0.24982809    -0.23000
H2665       H  0.89571560  0.59548320  0.31529511     0.18800
H2666       H  0.84953386  0.64708901  0.31353048     0.17600
H2667       H  0.85205988  0.64271513  0.38810459     0.13900
H2668       H  0.89317599  0.59978797  0.24073076     0.13700
H2669       H  0.89183475  0.59922239  0.38677366     0.31900
H2670       H  0.85419898  0.64400441  0.24208049     0.34600
C2671       C  0.76743978  0.61087926  0.12574104     0.20200
C2672       C  0.75139135  0.60032478  0.12636662    -0.39600
C2673       C  0.73495221  0.61028564  0.12747572     0.19200
C2674       C  0.73447281  0.62931493  0.12748420     0.21900
C2675       C  0.75056620  0.63988464  0.12744036    -0.40100
C2676       C  0.76704693  0.62990843  0.12681004     0.20700
N2677       N  0.78470355  0.60470036  0.12268363    -0.33400
C2678       C  0.79543495  0.61988515  0.12209308    -0.11000
C2679       C  0.78493436  0.63587436  0.12504701    -0.29800
N2680       N  0.71709343  0.63543509  0.12921250    -0.46400
C2681       C  0.70647738  0.62016901  0.13101871    -0.05700
C2682       C  0.71716014  0.60424897  0.12990911    -0.23000
H2683       H  0.75168099  0.58544230  0.12594102     0.18800
H2684       H  0.75028096  0.65476597  0.12775820     0.17600
H2685       H  0.78965483  0.64995741  0.12366391     0.13900
H2686       H  0.71256392  0.59015797  0.13215431     0.13700
H2687       H  0.78886891  0.59103011  0.11978733     0.31900
H2688       H  0.71280214  0.64911395  0.13104249     0.34600
C2689       C  0.98329594  0.38051346  0.99606327     0.20200
C2690       C  0.99933661  0.39068766  0.00298539    -0.39600
C2691       C  0.01598327  0.38095996  0.00005385     0.19200
C2692       C  0.01650819  0.36254015  0.99086763     0.21900
C2693       C  0.00056929  0.35243212  0.98389133    -0.40100
C2694       C  0.98403437  0.36210859  0.98688211     0.20700
N2695       N  0.96582838  0.38665712  0.99534481    -0.33400
C2696       C  0.95543419  0.37200948  0.98557902    -0.11000
C2697       C  0.96640114  0.35650580  0.98011962    -0.29800
N2698       N  0.03384194  0.35682993  0.98653160    -0.46400
C2699       C  0.04462675  0.37169063  0.99245271    -0.05700
C2700       C  0.03397231  0.38698834  0.00157960    -0.23000
H2701       H  0.99892780  0.40522492  0.00910722     0.18800
H2702       H  0.00104630  0.33818743  0.97561120     0.17600
H2703       H  0.96209516  0.34303214  0.97123157     0.13900
H2704       H  0.03863409  0.40094019  0.00588070     0.13700
H2705       H  0.96133931  0.40007248  0.00013544     0.31900
H2706       H  0.03800165  0.34386102  0.97775808     0.34600
C2707       C  0.76623153  0.37349559  0.87743337     0.20200
C2708       C  0.75002870  0.36338588  0.88225903    -0.39600
C2709       C  0.73359080  0.37304947  0.87696343     0.19200
C2710       C  0.73337125  0.39135140  0.86728298     0.21900
C2711       C  0.74955835  0.40157138  0.86315140    -0.40100
C2712       C  0.76598988  0.39195746  0.86887063     0.20700
N2713       N  0.78353760  0.36753530  0.88163420    -0.33400
C2714       C  0.79445892  0.38236038  0.87662789    -0.11000
C2715       C  0.78397788  0.39789425  0.86860489    -0.29800
N2716       N  0.71612500  0.39702771  0.86137445    -0.46400
C2717       C  0.70517975  0.38230245  0.86740210    -0.05700
C2718       C  0.71560330  0.36710825  0.87761314    -0.23000
H2719       H  0.75021871  0.34899842  0.88936001     0.18800
H2720       H  0.74936226  0.41593355  0.85586275     0.17600
H2721       H  0.78881826  0.41177342  0.86444069     0.13900
H2722       H  0.71078948  0.35330327  0.88265892     0.13700
H2723       H  0.78763341  0.35442475  0.88951232     0.31900
H2724       H  0.71211772  0.40994147  0.85226027     0.34600
C2725       C  0.85980263  0.48529256  0.99004147     0.20200
C2726       C  0.84885510  0.50118769  0.98962783    -0.39600
C2727       C  0.85827459  0.51796323  0.99172101     0.19200
C2728       C  0.87718333  0.51882064  0.99335885     0.21900
C2729       C  0.88812304  0.50291096  0.99411174    -0.40100
C2730       C  0.87867857  0.48610947  0.99265727     0.20700
N2731       N  0.85415873  0.46775958  0.98754074    -0.33400
C2732       C  0.86949304  0.45723087  0.98879680    -0.11000
C2733       C  0.88509153  0.46821047  0.99228947    -0.29800
N2734       N  0.88278089  0.53631988  0.99697677    -0.46400
C2735       C  0.86734817  0.54666529  0.99866696    -0.05700
C2736       C  0.85176103  0.53570744  0.99514975    -0.23000
H2737       H  0.83406739  0.50052402  0.98833120     0.18800
H2738       H  0.90288777  0.50357748  0.99615902     0.17600
H2739       H  0.89923541  0.46376053  0.99259514     0.13900
H2740       H  0.83760300  0.54000081  0.99702710     0.13700
H2741       H  0.84070061  0.46324913  0.98408624     0.31900
H2742       H  0.89622532  0.54080338  0.00075881     0.34600
C2743       C  0.98322122  0.35827471  0.49262522     0.20200
C2744       C  0.99902878  0.34737820  0.48967309    -0.39600
C2745       C  0.01575530  0.35652857  0.49444503     0.19200
C2746       C  0.01672781  0.37514934  0.50180405     0.21900
C2747       C  0.00084379  0.38605029  0.50507013    -0.40100
C2748       C  0.98404236  0.37687693  0.50021490     0.20700
N2749       N  0.96590990  0.35311437  0.48585908    -0.33400
C2750       C  0.95545759  0.36846126  0.48909531    -0.11000
C2751       C  0.96628369  0.38358043  0.49843285    -0.29800
N2752       N  0.03427762  0.38090640  0.50128237    -0.46400
C2753       C  0.04451448  0.36590140  0.49302067    -0.05700
C2754       C  0.03339652  0.35040748  0.48904093    -0.23000
H2755       H  0.99837901  0.33298423  0.48246234     0.18800
H2756       H  0.00154567  0.40074655  0.50944589     0.17600
H2757       H  0.96192399  0.39773027  0.50140943     0.13900
H2758       H  0.03753302  0.33678584  0.48067617     0.13700
H2759       H  0.96156639  0.34003427  0.47809780     0.31900
H2760       H  0.03886048  0.39445265  0.50376720     0.34600
C2761       C  0.86807656  0.36754628  0.71574266     0.20200
C2762       C  0.86265807  0.35844995  0.68521867    -0.39600
C2763       C  0.86971006  0.36563557  0.65422168     0.19200
C2764       C  0.88123613  0.38074452  0.65350738     0.21900
C2765       C  0.88663975  0.38986904  0.68403899    -0.40100
C2766       C  0.87962622  0.38264093  0.71505042     0.20700
N2767       N  0.86351454  0.36325214  0.74863345    -0.33400
C2768       C  0.87229569  0.37572442  0.76889355    -0.11000
C2769       C  0.88244496  0.38801855  0.74889587    -0.29800
N2770       N  0.88576562  0.38501528  0.62058474    -0.46400
C2771       C  0.87695932  0.37253487  0.60033639    -0.05700
C2772       C  0.86689779  0.36020829  0.62039286    -0.23000
H2773       H  0.85363477  0.34665496  0.68555985     0.18800
H2774       H  0.89563707  0.40168463  0.68370004     0.17600
H2775       H  0.89100421  0.39920878  0.75799270     0.13900
H2776       H  0.85832860  0.34901623  0.61134943     0.13700
H2777       H  0.85524464  0.35238289  0.75677387     0.31900
H2778       H  0.89395932  0.39593441  0.61240392     0.34600
C2779       C  0.87782527  0.38436780  0.21649433     0.20200
C2780       C  0.88580652  0.39233003  0.18693527    -0.39600
C2781       C  0.87909686  0.38610025  0.15475797     0.19200
C2782       C  0.86529473  0.37312936  0.15238129     0.21900
C2783       C  0.85720426  0.36525992  0.18195238    -0.40100
C2784       C  0.86411409  0.37129661  0.21414824     0.20700
N2785       N  0.88241197  0.38739353  0.24987595    -0.33400
C2786       C  0.87165197  0.37613423  0.26907331    -0.11000
C2787       C  0.85998582  0.36586311  0.24770368    -0.29800
N2788       N  0.86190416  0.36890426  0.11894860    -0.46400
C2789       C  0.87371132  0.37910677  0.09982550    -0.05700
C2790       C  0.88461552  0.39013315  0.12123456    -0.23000
H2791       H  0.89677072  0.40228410  0.18887078     0.18800
H2792       H  0.84665773  0.35486086  0.17998725     0.17600
H2793       H  0.85004799  0.35567464  0.25558983     0.13900
H2794       H  0.89536901  0.39946407  0.11341267     0.13700
H2795       H  0.89244557  0.39645240  0.25900588     0.31900
H2796       H  0.85234192  0.35936229  0.10974514     0.34600
C2797       C  0.73308323  0.38945445  0.37154098     0.20200
C2798       C  0.74917744  0.40006062  0.37139920    -0.39600
C2799       C  0.76565364  0.39024755  0.37520217     0.19200
C2800       C  0.76606571  0.37130327  0.37841336     0.21900
C2801       C  0.74995852  0.36074172  0.37897626    -0.40100
C2802       C  0.73347544  0.37055990  0.37556904     0.20700
N2803       N  0.71579488  0.39537049  0.36682595    -0.33400
C2804       C  0.70503497  0.38016635  0.36799591    -0.11000
C2805       C  0.71559699  0.36443314  0.37372936    -0.29800
N2806       N  0.78340402  0.36524846  0.38178869    -0.46400
C2807       C  0.79415454  0.38044304  0.38125172    -0.05700
C2808       C  0.78354005  0.39631734  0.37727964    -0.23000
H2809       H  0.74889444  0.41485424  0.36843802     0.18800
H2810       H  0.75024422  0.34593727  0.38171173     0.17600
H2811       H  0.71093737  0.35031473  0.37442809     0.13900
H2812       H  0.78825317  0.41042241  0.37687787     0.13700
H2813       H  0.71163479  0.40886245  0.36188541     0.31900
H2814       H  0.78760946  0.35168537  0.38580415     0.34600
C2815       C  0.86001693  0.48133762  0.50125801     0.20200
C2816       C  0.84915312  0.49726403  0.50295135    -0.39600
C2817       C  0.85871037  0.51389752  0.50653805     0.19200
C2818       C  0.87763748  0.51461706  0.50777406     0.21900
C2819       C  0.88847310  0.49866364  0.50666699    -0.40100
C2820       C  0.87891570  0.48200311  0.50356936     0.20700
N2821       N  0.85430657  0.46395485  0.49644031    -0.33400
C2822       C  0.86964046  0.45340627  0.49610703    -0.11000
C2823       C  0.88527512  0.46417999  0.50067854    -0.29800
N2824       N  0.88342971  0.53208987  0.51085763    -0.46400
C2825       C  0.86808896  0.54256725  0.51213439    -0.05700
C2826       C  0.85238336  0.53169609  0.50972476    -0.23000
H2827       H  0.83436481  0.49674647  0.50141689     0.18800
H2828       H  0.90326610  0.49919737  0.50791826     0.17600
H2829       H  0.89940739  0.45970209  0.50002616     0.13900
H2830       H  0.83826451  0.53619295  0.51086990     0.13700
H2831       H  0.84082786  0.45959119  0.49259337     0.31900
H2832       H  0.89695681  0.53655567  0.51338877     0.34600
C2833       C  0.12587711  0.23322082  0.87232390     0.20200
C2834       C  0.13608769  0.24926158  0.86567376    -0.39600
C2835       C  0.12682769  0.26608471  0.87071637     0.19200
C2836       C  0.10875961  0.26679057  0.88140272     0.21900
C2837       C  0.09858651  0.25083112  0.88803780    -0.40100
C2838       C  0.10784435  0.23410517  0.88317138     0.20700
N2839       N  0.13188342  0.21564272  0.87229802    -0.33400
C2840       C  0.11760023  0.20532938  0.88361153    -0.11000
C2841       C  0.10236513  0.21642546  0.89034840    -0.29800
N2842       N  0.10347708  0.28425768  0.88704401    -0.46400
C2843       C  0.11825678  0.29493171  0.88023472    -0.05700
C2844       C  0.13309330  0.28406428  0.86967573    -0.23000
H2845       H  0.15038386  0.24870359  0.85840917     0.18800
H2846       H  0.08467303  0.25141355  0.89764085     0.17600
H2847       H  0.08929786  0.21222176  0.90091189     0.13900
H2848       H  0.14689668  0.28859188  0.86420403     0.13700
H2849       H  0.14510841  0.21106992  0.86661611     0.31900
H2850       H  0.09081503  0.28857531  0.89672547     0.34600
C2851       C  0.10980387  0.26573464  0.36946652     0.20200
C2852       C  0.09980266  0.24952566  0.37461882    -0.39600
C2853       C  0.10982596  0.23309528  0.37293397     0.19200
C2854       C  0.12844255  0.23266988  0.36638097     0.21900
C2855       C  0.13847477  0.24895349  0.36094898    -0.40100
C2856       C  0.12841701  0.26549774  0.36278772     0.20700
N2857       N  0.10378281  0.28305685  0.37404913    -0.33400
C2858       C  0.11861658  0.29409769  0.37054454    -0.11000
C2859       C  0.13421735  0.28362616  0.36298116    -0.29800
N2860       N  0.13498579  0.21536572  0.36954186    -0.46400
C2861       C  0.12040597  0.20483085  0.37859973    -0.05700
C2862       C  0.10451368  0.21544653  0.38058588    -0.23000
H2863       H  0.08541168  0.24974233  0.38128706     0.18800
H2864       H  0.15316159  0.24882038  0.35729974     0.17600
H2865       H  0.14817534  0.28848284  0.36101245     0.13900
H2866       H  0.09102697  0.21100846  0.38859687     0.13700
H2867       H  0.09059465  0.28701567  0.38146216     0.31900
H2868       H  0.14863741  0.21119496  0.36764629     0.34600
C2869       C  0.13111185  0.12873558  0.65452103     0.20200
C2870       C  0.13947451  0.13625458  0.68426180    -0.39600
C2871       C  0.13178783  0.13110881  0.71612438     0.19200
C2872       C  0.11689319  0.11940670  0.71801258     0.21900
C2873       C  0.10847315  0.11194553  0.68823277    -0.40100
C2874       C  0.11619974  0.11705206  0.65635991     0.20700
N2875       N  0.13582257  0.13159416  0.62131761    -0.33400
C2876       C  0.12382788  0.12173035  0.60177452    -0.11000
C2877       C  0.11136106  0.11238842  0.62266250    -0.29800
N2878       N  0.11236324  0.11638345  0.75129337    -0.46400
C2879       C  0.12443511  0.12620608  0.77079918    -0.05700
C2880       C  0.13677820  0.13563443  0.74979403    -0.23000
H2881       H  0.15114094  0.14537424  0.68267685     0.18800
H2882       H  0.09683082  0.10279375  0.68979851     0.17600
H2883       H  0.10016683  0.10365785  0.61434565     0.13900
H2884       H  0.14800524  0.14434532  0.75801944     0.13700
H2885       H  0.14645251  0.13996459  0.61250026     0.31900
H2886       H  0.10178044  0.10797429  0.76017510     0.34600
C2887       C  0.12313430  0.11587474  0.21866994     0.20200
C2888       C  0.11656352  0.10651980  0.18913742    -0.39600
C2889       C  0.12100336  0.11439131  0.15703527     0.19200
C2890       C  0.13122833  0.13034968  0.15473360     0.21900
C2891       C  0.13788259  0.13967207  0.18427685    -0.40100
C2892       C  0.13345994  0.13177342  0.21641082     0.20700
N2893       N  0.12026055  0.11145362  0.25203598    -0.33400
C2894       C  0.12882415  0.12455375  0.27131228    -0.11000
C2895       C  0.13733870  0.13747314  0.25003931    -0.29800
N2896       N  0.13333368  0.13520480  0.12136599    -0.46400
C2897       C  0.12436402  0.12231124  0.10221074    -0.05700
C2898       C  0.11651110  0.10901986  0.12352122    -0.23000
H2899       H  0.10842200  0.09414019  0.19106774     0.18800
H2900       H  0.14575743  0.15222547  0.18235657     0.17600
H2901       H  0.14486906  0.14959274  0.25804799     0.13900
H2902       H  0.10863118  0.09710943  0.11561351     0.13700
H2903       H  0.11269524  0.10028113  0.26113727     0.31900
H2904       H  0.14038832  0.14669688  0.11220395     0.34600
C2905       C  0.38919068  0.23328313  0.86909632     0.20200
C2906       C  0.39978181  0.24891332  0.86229236    -0.39600
C2907       C  0.39137924  0.26585358  0.86913471     0.19200
C2908       C  0.37370607  0.26723060  0.88177336     0.21900
C2909       C  0.36299392  0.25148699  0.88834479    -0.40100
C2910       C  0.37144945  0.23440879  0.88148153     0.20700
N2911       N  0.39382883  0.21577199  0.86257841    -0.33400
C2912       C  0.37897290  0.20541450  0.87039583    -0.11000
C2913       C  0.36468914  0.21656427  0.88258828    -0.29800
N2914       N  0.36851710  0.28502594  0.88366901    -0.46400
C2915       C  0.38295887  0.29496297  0.87182571    -0.05700
C2916       C  0.39747835  0.28340641  0.86276520    -0.23000
H2917       H  0.41341248  0.24795021  0.85140957     0.18800
H2918       H  0.34895823  0.25247629  0.89713502     0.17600
H2919       H  0.35097394  0.21232967  0.88947859     0.13900
H2920       H  0.41036193  0.28725380  0.85096837     0.13700
H2921       H  0.40619681  0.21122957  0.85192446     0.31900
H2922       H  0.35563241  0.29002075  0.89074889     0.34600
C2923       C  0.26569236  0.12761246  0.87996183     0.20200
C2924       C  0.24995512  0.13844142  0.88533694    -0.39600
C2925       C  0.23308663  0.12921112  0.88252333     0.19200
C2926       C  0.23200919  0.11054624  0.87561037     0.21900
C2927       C  0.24770063  0.09977986  0.86982999    -0.40100
C2928       C  0.26452019  0.10906277  0.87207176     0.20700
N2929       N  0.28327785  0.13323570  0.87960584    -0.33400
C2930       C  0.29336328  0.11822225  0.87082544    -0.11000
C2931       C  0.28208730  0.10288725  0.86605726    -0.29800
N2932       N  0.21448426  0.10485734  0.87594057    -0.46400
C2933       C  0.20423564  0.12004519  0.88249993    -0.05700
C2934       C  0.21535875  0.13553245  0.88659231    -0.23000
H2935       H  0.25077501  0.15300736  0.89104381     0.18800
H2936       H  0.24686996  0.08525064  0.86378152     0.17600
H2937       H  0.28613130  0.08923017  0.85774259     0.13900
H2938       H  0.21110069  0.14933529  0.89350663     0.13700
H2939       H  0.28802295  0.14665526  0.88324707     0.31900
H2940       H  0.20979145  0.09139310  0.87266257     0.34600
C2941       C  0.37208301  0.26633282  0.38303437     0.20200
C2942       C  0.36174254  0.25031497  0.38907332    -0.39600
C2943       C  0.37113849  0.23352298  0.38485851     0.19200
C2944       C  0.38938555  0.23285845  0.37526617     0.21900
C2945       C  0.39965309  0.24877719  0.36922321    -0.40100
C2946       C  0.39032615  0.26544778  0.37353415     0.20700
N2947       N  0.36613588  0.28390460  0.38263784    -0.33400
C2948       C  0.38073743  0.29416423  0.37265514    -0.11000
C2949       C  0.39603859  0.28307574  0.36694995    -0.29800
N2950       N  0.39473111  0.21546672  0.36946478    -0.46400
C2951       C  0.37979179  0.20481452  0.37486548    -0.05700
C2952       C  0.36484329  0.21556181  0.38516832    -0.23000
H2953       H  0.34730345  0.25085934  0.39525768     0.18800
H2954       H  0.41371407  0.24820458  0.36042614     0.17600
H2955       H  0.40931172  0.28724976  0.35730562     0.13900
H2956       H  0.35094228  0.21101128  0.38957728     0.13700
H2957       H  0.35278322  0.28849811  0.38706157     0.31900
H2958       H  0.40750599  0.21123498  0.36018705     0.34600
C2959       C  0.37836513  0.11701514  0.53378301     0.20200
C2960       C  0.38649101  0.10927118  0.56343830    -0.39600
C2961       C  0.38124975  0.11707872  0.59528771     0.19200
C2962       C  0.36876530  0.13138620  0.59725566     0.21900
C2963       C  0.36060174  0.13909335  0.56763029    -0.40100
C2964       C  0.36594872  0.13138297  0.53576970     0.20700
N2965       N  0.38155919  0.11245517  0.50051032    -0.33400
C2966       C  0.37122154  0.12405590  0.48112687    -0.11000
C2967       C  0.36118482  0.13604503  0.50216491    -0.29800
N2968       N  0.36584524  0.13621062  0.63046108    -0.46400
C2969       C  0.37645375  0.12486295  0.64983639    -0.05700
C2970       C  0.38642172  0.11279213  0.62886687    -0.23000
H2971       H  0.39625981  0.09809822  0.56178483     0.18800
H2972       H  0.35091789  0.15034088  0.56929178     0.17600
H2973       H  0.35205572  0.14695104  0.49399687     0.13900
H2974       H  0.39578886  0.10210037  0.63707728     0.13700
H2975       H  0.39054411  0.10230446  0.49153775     0.31900
H2976       H  0.35690228  0.14640812  0.63940444     0.34600
C2977       C  0.37967338  0.11958237  0.03364779     0.20200
C2978       C  0.38884482  0.11305256  0.06335798    -0.39600
C2979       C  0.38165703  0.11885574  0.09543194     0.19200
C2980       C  0.36644915  0.13018131  0.09752728     0.21900
C2981       C  0.35730427  0.13669673  0.06785867    -0.40100
C2982       C  0.36457261  0.13103835  0.03581284     0.20700
N2983       N  0.38391550  0.11624646  0.00022879    -0.33400
C2984       C  0.37154227  0.12573879  0.98090095    -0.11000
C2985       C  0.35922450  0.13517267  0.00219783    -0.29800
N2986       N  0.36228475  0.13378397  0.13084664    -0.46400
C2987       C  0.37489539  0.12472406  0.15023564    -0.05700
C2988       C  0.38727439  0.11523017  0.12911127    -0.23000
H2989       H  0.40074172  0.10421228  0.06159901     0.18800
H2990       H  0.34547733  0.14562947  0.06963446     0.17600
H2991       H  0.34792487  0.14383563  0.99421324     0.13900
H2992       H  0.39878365  0.10688979  0.13726634     0.13700
H2993       H  0.39469871  0.10809676  0.99113194     0.31900
H2994       H  0.35144677  0.14189161  0.13984076     0.34600
C2995       C  0.26634906  0.11084065  0.37591948     0.20200
C2996       C  0.25067408  0.09998794  0.38007437    -0.39600
C2997       C  0.23396215  0.10945477  0.37952736     0.19200
C2998       C  0.23287701  0.12828644  0.37482609     0.21900
C2999       C  0.24860910  0.13920671  0.37105481    -0.40100
C3000       C  0.26537935  0.12974190  0.37205459     0.20700
N3001       N  0.28377351  0.10500938  0.37432157    -0.33400
C3002       C  0.29403390  0.12031916  0.36991555    -0.11000
C3003       C  0.28307866  0.13604230  0.36853962    -0.29800
N3004       N  0.21533530  0.13393851  0.37586515    -0.46400
C3005       C  0.20523790  0.11859953  0.38169972    -0.05700
C3006       C  0.21641305  0.10308542  0.38409871    -0.23000
H3007       H  0.25143758  0.08524251  0.38354057     0.18800
H3008       H  0.24785616  0.15395655  0.36764895     0.17600
H3009       H  0.28741700  0.15002970  0.36371994     0.13900
H3010       H  0.21229616  0.08911216  0.38968995     0.13700
H3011       H  0.28837787  0.09141382  0.37533299     0.31900
H3012       H  0.21060696  0.14747366  0.37426215     0.34600
C3013       C  0.37191852  0.76650628  0.62519520     0.20200
C3014       C  0.36148635  0.75049074  0.61958871    -0.39600
C3015       C  0.37107165  0.73373202  0.62176454     0.19200
C3016       C  0.38960488  0.73304777  0.62921964     0.21900
C3017       C  0.40003443  0.74900214  0.63466216    -0.40100
C3018       C  0.39048024  0.76569505  0.63232469     0.20700
N3019       N  0.36587498  0.78402876  0.62669410    -0.33400
C3020       C  0.38071451  0.79442195  0.63488920    -0.11000
C3021       C  0.39629622  0.78341446  0.63850256    -0.29800
N3022       N  0.39515716  0.71558445  0.63337094    -0.46400
C3023       C  0.38010622  0.70493653  0.62866926    -0.05700
C3024       C  0.36482091  0.71577109  0.62090195    -0.23000
H3025       H  0.34686731  0.75100859  0.61506126     0.18800
H3026       H  0.41441280  0.74842876  0.64147050     0.17600
H3027       H  0.40993683  0.78773787  0.64596516     0.13900
H3028       H  0.35080248  0.71123945  0.61777050     0.13700
H3029       H  0.35238291  0.78854008  0.62373074     0.31900
H3030       H  0.40820471  0.71125466  0.64098785     0.34600
C3031       C  0.37764582  0.98335057  0.75336267     0.20200
C3032       C  0.38845190  0.99933905  0.75500178    -0.39600
C3033       C  0.37884300  0.01610341  0.75432041     0.19200
C3034       C  0.35992454  0.01683304  0.75283825     0.21900
C3035       C  0.34915304  0.00089006  0.75116110    -0.40100
C3036       C  0.35874953  0.98417315  0.75118733     0.20700
N3037       N  0.38345829  0.96580763  0.75110029    -0.33400
C3038       C  0.36817012  0.95542811  0.74678112    -0.11000
C3039       C  0.35249797  0.96642631  0.74697224    -0.29800
N3040       N  0.35401234  0.03432804  0.75408379    -0.46400
C3041       C  0.36924265  0.04490870  0.75619719    -0.05700
C3042       C  0.38503326  0.03403260  0.75607198    -0.23000
H3043       H  0.40324605  0.99877375  0.75622727     0.18800
H3044       H  0.33437314  0.00146917  0.74943403     0.17600
H3045       H  0.33849049  0.96211344  0.74270693     0.13900
H3046       H  0.39905403  0.03857386  0.75913027     0.13700
H3047       H  0.39703447  0.96129308  0.75032900     0.31900
H3048       H  0.34041298  0.03877582  0.75473313     0.34600
C3049       C  0.38794490  0.76581236  0.13240709     0.20200
C3050       C  0.39855073  0.74985565  0.13589650    -0.39600
C3051       C  0.38927528  0.73320294  0.13087183     0.19200
C3052       C  0.37079829  0.73238739  0.12298910     0.21900
C3053       C  0.36013138  0.74843948  0.11958386    -0.40100
C3054       C  0.36945379  0.76519245  0.12453678     0.20700
N3055       N  0.39334275  0.78315768  0.13852654    -0.33400
C3056       C  0.37821845  0.79380281  0.13479050    -0.11000
C3057       C  0.36303969  0.78311046  0.12567433    -0.29800
N3058       N  0.36504992  0.71475995  0.12200955    -0.46400
C3059       C  0.37999194  0.70435698  0.12959337    -0.05700
C3060       C  0.39532329  0.71544813  0.13509179    -0.23000
H3061       H  0.41287059  0.75035451  0.14316187     0.18800
H3062       H  0.34555695  0.74791721  0.11455431     0.17600
H3063       H  0.34904056  0.78768617  0.12239422     0.13900
H3064       H  0.40887841  0.71114054  0.14312571     0.13700
H3065       H  0.40640424  0.78739692  0.14625985     0.31900
H3066       H  0.35163442  0.71017215  0.11834743     0.34600
C3067       C  0.37994908  0.88220516  0.97013945     0.20200
C3068       C  0.38823376  0.89013526  0.94084127    -0.39600
C3069       C  0.38261308  0.88308680  0.90849722     0.19200
C3070       C  0.36975746  0.86918680  0.90579926     0.21900
C3071       C  0.36142492  0.86130457  0.93510370    -0.40100
C3072       C  0.36703055  0.86836314  0.96743128     0.20700
N3073       N  0.38324669  0.88624490  0.00365335    -0.33400
C3074       C  0.37241417  0.87490043  0.02253987    -0.11000
C3075       C  0.36199684  0.86354920  0.00087018    -0.29800
N3076       N  0.36667153  0.86493894  0.87228568    -0.46400
C3077       C  0.37751379  0.87625492  0.85332664    -0.05700
C3078       C  0.38774687  0.88778470  0.87502822    -0.23000
H3079       H  0.39834229  0.90094948  0.94310814     0.18800
H3080       H  0.35137328  0.85043617  0.93286787     0.17600
H3081       H  0.35233920  0.85304342  0.00851808     0.13900
H3082       H  0.39742119  0.89827488  0.86739117     0.13700
H3083       H  0.39255985  0.89597173  0.01309357     0.31900
H3084       H  0.35752783  0.85504162  0.86288538     0.34600
C3085       C  0.37765329  0.88438937  0.46933394     0.20200
C3086       C  0.38600681  0.89209576  0.43994088    -0.39600
C3087       C  0.37950028  0.88575589  0.40775249     0.19200
C3088       C  0.36567681  0.87280569  0.40527796     0.21900
C3089       C  0.35731762  0.86510317  0.43465234    -0.40100
C3090       C  0.36389669  0.87136804  0.46686169     0.20700
N3091       N  0.38186859  0.88767111  0.50273161    -0.33400
C3092       C  0.37088590  0.87657743  0.52179747    -0.11000
C3093       C  0.35934450  0.86623084  0.50035454    -0.29800
N3094       N  0.36213864  0.86880093  0.37189956    -0.46400
C3095       C  0.37378484  0.87921115  0.35291075    -0.05700
C3096       C  0.38487869  0.89003121  0.37429846    -0.23000
H3097       H  0.39693526  0.90208295  0.44202908     0.18800
H3098       H  0.34667871  0.85480664  0.43253057     0.17600
H3099       H  0.34929421  0.85612997  0.50812485     0.13900
H3100       H  0.39550819  0.89950889  0.36649096     0.13700
H3101       H  0.39190500  0.89670181  0.51195071     0.31900
H3102       H  0.35246255  0.85939093  0.36263222     0.34600
C3103       C  0.37845407  0.98417077  0.24695376     0.20200
C3104       C  0.38894149  0.00039221  0.24841696    -0.39600
C3105       C  0.37897445  0.01697270  0.24923908     0.19200
C3106       C  0.36002929  0.01734538  0.24889663     0.21900
C3107       C  0.34958445  0.00117656  0.24710893    -0.40100
C3108       C  0.35952270  0.98464870  0.24610705     0.20700
N3109       N  0.38455222  0.96668009  0.24490952    -0.33400
C3110       C  0.36936744  0.95598403  0.24226944    -0.11000
C3111       C  0.35353435  0.96675274  0.24311674    -0.29800
N3112       N  0.35378404  0.03468464  0.25217226    -0.46400
C3113       C  0.36884123  0.04551417  0.25452784    -0.05700
C3114       C  0.38481569  0.03496675  0.25242691    -0.23000
H3115       H  0.40375253  0.00013187  0.24908274     0.18800
H3116       H  0.33477141  0.00143572  0.24670762     0.17600
H3117       H  0.33951240  0.96213563  0.24052817     0.13900
H3118       H  0.39878180  0.03971589  0.25524371     0.13700
H3119       H  0.39818049  0.96236531  0.24361975     0.31900
H3120       H  0.34012130  0.03882672  0.25403181     0.34600
C3121       C  0.12733208  0.76602507  0.62931855     0.20200
C3122       C  0.13724408  0.74969506  0.63510523    -0.39600
C3123       C  0.12740263  0.73317666  0.63086831     0.19200
C3124       C  0.10909412  0.73297765  0.62151520     0.21900
C3125       C  0.09920409  0.74924314  0.61572703    -0.40100
C3126       C  0.10902676  0.76567969  0.61997034     0.20700
N3127       N  0.13378703  0.78342871  0.62920913    -0.33400
C3128       C  0.11948094  0.79417413  0.61938754    -0.11000
C3129       C  0.10382315  0.78353243  0.61366583    -0.29800
N3130       N  0.10328536  0.71565665  0.61604343    -0.46400
C3131       C  0.11798707  0.70461504  0.62161878    -0.05700
C3132       C  0.13324837  0.71506599  0.63136819    -0.23000
H3133       H  0.15171324  0.74981345  0.64121894     0.18800
H3134       H  0.08505870  0.74909786  0.60725381     0.17600
H3135       H  0.09058779  0.78816425  0.60442884     0.13900
H3136       H  0.14706550  0.71018842  0.63573000     0.13700
H3137       H  0.14724320  0.78761635  0.63391031     0.31900
H3138       H  0.09034354  0.71167739  0.60716564     0.34600
C3139       C  0.14059235  0.98353806  0.50636597     0.20200
C3140       C  0.15108498  0.99976544  0.50610321    -0.39600
C3141       C  0.14115967  0.01626429  0.50267738     0.19200
C3142       C  0.12225953  0.01654349  0.50007689     0.21900
C3143       C  0.11184858  0.00033494  0.49979786    -0.40100
C3144       C  0.12173778  0.98387241  0.50290372     0.20700
N3145       N  0.14654895  0.96618263  0.51102295    -0.33400
C3146       C  0.13137371  0.95539235  0.51029362    -0.11000
C3147       C  0.11567086  0.96596165  0.50496081    -0.29800
N3148       N  0.11605208  0.03385265  0.49642465    -0.46400
C3149       C  0.13108727  0.04474767  0.49598346    -0.05700
C3150       C  0.14702705  0.03425858  0.49995790    -0.23000
H3151       H  0.16585323  0.99956551  0.50843395     0.18800
H3152       H  0.09708279  0.00053173  0.49743088     0.17600
H3153       H  0.10160796  0.96128966  0.50469989     0.13900
H3154       H  0.16103695  0.03908226  0.49945197     0.13700
H3155       H  0.16002939  0.96200245  0.51556487     0.31900
H3156       H  0.10248333  0.03789617  0.49244085     0.34600
C3157       C  0.23370571  0.87011592  0.62457269     0.20200
C3158       C  0.24974929  0.85939505  0.62456004    -0.39600
C3159       C  0.26631007  0.86922945  0.62575003     0.19200
C3160       C  0.26678326  0.88825235  0.62708596     0.21900
C3161       C  0.25080019  0.89893649  0.62659797    -0.40100
C3162       C  0.23431056  0.88913719  0.62521823     0.20700
N3163       N  0.21626414  0.86419711  0.62268895    -0.33400
C3164       C  0.20576694  0.87959898  0.62157816    -0.11000
C3165       C  0.21656468  0.89538803  0.62320329    -0.29800
N3166       N  0.28405385  0.89431156  0.63052640    -0.46400
C3167       C  0.29475660  0.87908391  0.63130073    -0.05700
C3168       C  0.28420067  0.86314955  0.62796325    -0.23000
H3169       H  0.24936781  0.84451820  0.62393540     0.18800
H3170       H  0.25117352  0.91381182  0.62745741     0.17600
H3171       H  0.21205570  0.90955038  0.62171091     0.13900
H3172       H  0.28887150  0.84903863  0.62934597     0.13700
H3173       H  0.21183954  0.85058724  0.62041375     0.31900
H3174       H  0.28824222  0.90795982  0.63354306     0.34600
C3175       C  0.12527740  0.76645268  0.13720391     0.20200
C3176       C  0.13531256  0.75031458  0.14434521    -0.39600
C3177       C  0.12577048  0.73360298  0.14004627     0.19200
C3178       C  0.10763723  0.73312039  0.12954138     0.21900
C3179       C  0.09766917  0.74915124  0.12243623    -0.40100
C3180       C  0.10717022  0.76573597  0.12663855     0.20700
N3181       N  0.13146750  0.78395117  0.13654791    -0.33400
C3182       C  0.11718275  0.79434280  0.12519813    -0.11000
C3183       C  0.10181739  0.78339013  0.11900743    -0.29800
N3184       N  0.10212761  0.71575063  0.12398557    -0.46400
C3185       C  0.11682692  0.70489553  0.13053675    -0.05700
C3186       C  0.13182809  0.71553723  0.14110027    -0.23000
H3187       H  0.14966917  0.75070132  0.15133278     0.18800
H3188       H  0.08372075  0.74870373  0.11287961     0.17600
H3189       H  0.08870995  0.78765954  0.10856336     0.13900
H3190       H  0.14564491  0.71083166  0.14610399     0.13700
H3191       H  0.14477235  0.78840782  0.14189662     0.31900
H3192       H  0.08943553  0.71163702  0.11406613     0.34600
C3193       C  0.12001557  0.88210582  0.78650226     0.20200
C3194       C  0.11221553  0.89037033  0.81611739    -0.39600
C3195       C  0.11659669  0.88217467  0.84805398     0.19200
C3196       C  0.12783761  0.86688317  0.85012717     0.21900
C3197       C  0.13557735  0.85856995  0.82049863    -0.40100
C3198       C  0.13125384  0.86681366  0.78856076     0.20700
N3199       N  0.11773293  0.88715961  0.75322329    -0.33400
C3200       C  0.12748011  0.87498345  0.73378004    -0.11000
C3201       C  0.13623596  0.86210718  0.75493378    -0.29800
N3202       N  0.13038237  0.86204122  0.88344931    -0.46400
C3203       C  0.12079940  0.87436074  0.90285114    -0.05700
C3204       C  0.11187573  0.88709969  0.88168591    -0.23000
H3205       H  0.10346946  0.90235929  0.81440329     0.18800
H3206       H  0.14439098  0.84663181  0.82223669     0.17600
H3207       H  0.14466362  0.85062004  0.74679424     0.13900
H3208       H  0.10351721  0.89864179  0.88981101     0.13700
H3209       H  0.10968972  0.89805390  0.74425233     0.31900
H3210       H  0.13849650  0.85120932  0.89246361     0.34600
C3211       C  0.13151265  0.86858716  0.28726586     0.20200
C3212       C  0.13730586  0.85996752  0.31792032    -0.39600
C3213       C  0.13059485  0.86768017  0.34889896     0.19200
C3214       C  0.11893988  0.88272842  0.34947860     0.21900
C3215       C  0.11321506  0.89137364  0.31886571    -0.40100
C3216       C  0.11998406  0.88372798  0.28790611     0.20700
N3217       N  0.13558310  0.86373913  0.25430732    -0.33400
C3218       C  0.12648958  0.87591029  0.23400380    -0.11000
C3219       C  0.11674259  0.88861422  0.25404895    -0.29800
N3220       N  0.11460157  0.88745840  0.38234318    -0.46400
C3221       C  0.12371556  0.87536232  0.40267889    -0.05700
C3222       C  0.13378571  0.86283447  0.38278617    -0.23000
H3223       H  0.14632768  0.84814638  0.31769789     0.18800
H3224       H  0.10413397  0.90314627  0.31910980     0.17600
H3225       H  0.10810787  0.89973148  0.24499676     0.13900
H3226       H  0.14247136  0.85178493  0.39196407     0.13700
H3227       H  0.14367938  0.85267875  0.24617493     0.31900
H3228       H  0.10624478  0.89833641  0.39039887     0.34600
C3229       C  0.13882833  0.01539767  0.99625389     0.20200
C3230       C  0.14953024  0.99929525  0.99734762    -0.39600
C3231       C  0.13988786  0.98275191  0.00197648     0.19200
C3232       C  0.12100457  0.98227902  0.00455998     0.21900
C3233       C  0.11035862  0.99840482  0.00421727    -0.40100
C3234       C  0.12001737  0.01497061  0.00024407     0.20700
N3235       N  0.14461456  0.03274266  0.99099601    -0.33400
C3236       C  0.12944113  0.04354191  0.99215387    -0.11000
C3237       C  0.11383034  0.03291322  0.99816028    -0.29800
N3238       N  0.11508579  0.96489950  0.00864549    -0.46400
C3239       C  0.13029287  0.95418675  0.00947207    -0.05700
C3240       C  0.14606429  0.96486869  0.00551758    -0.23000
H3241       H  0.16427870  0.99962621  0.99480622     0.18800
H3242       H  0.09561467  0.99807146  0.00684716     0.17600
H3243       H  0.09976766  0.03758148  0.99929408     0.13900
H3244       H  0.16014894  0.96023413  0.00611652     0.13700
H3245       H  0.15803968  0.03693974  0.98617002     0.31900
H3246       H  0.10156592  0.96067030  0.01229697     0.34600
C3247       C  0.23232852  0.88814991  0.12597717     0.20200
C3248       C  0.24845594  0.89863003  0.12458474    -0.39600
C3249       C  0.26490162  0.88884499  0.12861448     0.19200
C3250       C  0.26531974  0.87000055  0.13338062     0.21900
C3251       C  0.24913915  0.85950389  0.13498589    -0.40100
C3252       C  0.23263046  0.86933580  0.13118113     0.20700
N3253       N  0.21506575  0.89415559  0.12143689    -0.33400
C3254       C  0.20415402  0.87911306  0.12372845    -0.11000
C3255       C  0.21463755  0.86336165  0.13010658    -0.29800
N3256       N  0.28272010  0.86406826  0.13705127    -0.46400
C3257       C  0.29343223  0.87928558  0.13496556    -0.05700
C3258       C  0.28275866  0.89498111  0.12976389    -0.23000
H3259       H  0.24821831  0.91335334  0.12058331     0.18800
H3260       H  0.24938269  0.84476770  0.13879340     0.17600
H3261       H  0.20984017  0.84931482  0.13172716     0.13900
H3262       H  0.28742721  0.90906874  0.12803612     0.13700
H3263       H  0.21100585  0.90761480  0.11592015     0.31900
H3264       H  0.28699009  0.85064246  0.14227211     0.34600
C3265       C  0.48203228  0.14039806  0.76145794     0.20200
C3266       C  0.49761495  0.15123298  0.76707844    -0.39600
C3267       C  0.51441310  0.14278191  0.75984869     0.19200
C3268       C  0.51569154  0.12486495  0.74777744     0.21900
C3269       C  0.49998380  0.11401921  0.74183428    -0.40100
C3270       C  0.48306049  0.12249340  0.74923297     0.20700
N3271       N  0.46474466  0.14486225  0.76947773    -0.33400
C3272       C  0.45445790  0.12976771  0.76258415    -0.11000
C3273       C  0.46538016  0.11550131  0.74948679    -0.29800
N3274       N  0.53336331  0.11948574  0.74653669    -0.46400
C3275       C  0.54331464  0.13404398  0.75824097    -0.05700
C3276       C  0.53190917  0.14886466  0.76637760    -0.23000
H3277       H  0.49675219  0.16498447  0.77789384     0.18800
H3278       H  0.50091399  0.09979645  0.73358974     0.17600
H3279       H  0.46114065  0.10166394  0.74284497     0.13900
H3280       H  0.53579311  0.16189193  0.77798683     0.13700
H3281       H  0.46032967  0.15728264  0.78041015     0.31900
H3282       H  0.53824216  0.10636397  0.74036409     0.34600
C3283       C  0.62835530  0.26798307  0.87804212     0.20200
C3284       C  0.63870897  0.25181018  0.88262256    -0.39600
C3285       C  0.62883545  0.23518966  0.88136864     0.19200
C3286       C  0.61010020  0.23479485  0.87592394     0.21900
C3287       C  0.59978667  0.25089341  0.87148098    -0.40100
C3288       C  0.60962560  0.26742082  0.87265309     0.20700
N3289       N  0.63462352  0.28534240  0.87487964    -0.33400
C3290       C  0.61978307  0.29581182  0.86697527    -0.11000
C3291       C  0.60395871  0.28507987  0.86567529    -0.29800
N3292       N  0.60418007  0.21743330  0.87193780    -0.46400
C3293       C  0.61918655  0.20654296  0.87462703    -0.05700
C3294       C  0.63483984  0.21712094  0.88100322    -0.23000
H3295       H  0.65345428  0.25209618  0.88537883     0.18800
H3296       H  0.58526749  0.25052372  0.86581549     0.17600
H3297       H  0.59027642  0.28945606  0.85862830     0.13900
H3298       H  0.64887493  0.21236863  0.88216917     0.13700
H3299       H  0.64826185  0.28961131  0.87596935     0.31900
H3300       H  0.59087966  0.21332851  0.86557039     0.34600
C3301       C  0.51540843  0.12383343  0.24409037     0.20200
C3302       C  0.49940696  0.11314645  0.24008326    -0.39600
C3303       C  0.48268501  0.12224920  0.24667042     0.19200
C3304       C  0.48204656  0.14059883  0.25630231     0.21900
C3305       C  0.49793182  0.15125499  0.26004045    -0.40100
C3306       C  0.51454986  0.14217568  0.25370063     0.20700
N3307       N  0.53298057  0.11798170  0.24376208    -0.33400
C3308       C  0.54329648  0.13264223  0.25388619    -0.11000
C3309       C  0.53220953  0.14800515  0.25968952    -0.29800
N3310       N  0.46485458  0.14569294  0.26419278    -0.46400
C3311       C  0.45427127  0.13053157  0.25984107    -0.05700
C3312       C  0.46490101  0.11562548  0.24853766    -0.23000
H3313       H  0.49997632  0.09860890  0.23400562     0.18800
H3314       H  0.49744170  0.16537412  0.26906335     0.17600
H3315       H  0.53637257  0.16127062  0.26986330     0.13900
H3316       H  0.46041067  0.10161668  0.24426016     0.13700
H3317       H  0.53751662  0.10452168  0.23961309     0.31900
H3318       H  0.46070716  0.15856738  0.27347814     0.34600
C3319       C  0.62666367  0.26627755  0.37778706     0.20200
C3320       C  0.63624801  0.25009267  0.38674901    -0.39600
C3321       C  0.62638518  0.23348191  0.38344326     0.19200
C3322       C  0.60833565  0.23315185  0.37241573     0.21900
C3323       C  0.59884654  0.24921258  0.36340789    -0.40100
C3324       C  0.60869934  0.26566835  0.36636494     0.20700
N3325       N  0.63323126  0.28363095  0.37587652    -0.33400
C3326       C  0.61935883  0.29400602  0.36267915    -0.11000
C3327       C  0.60387427  0.28319755  0.35666070    -0.29800
N3328       N  0.60250210  0.21579379  0.36795553    -0.46400
C3329       C  0.61693456  0.20475530  0.37552038    -0.05700
C3330       C  0.63206670  0.21530957  0.38579583    -0.23000
H3331       H  0.65054128  0.25032793  0.39421937     0.18800
H3332       H  0.58501215  0.24883252  0.35325530     0.17600
H3333       H  0.59100040  0.28746067  0.34520537     0.13900
H3334       H  0.64578345  0.21043571  0.39120197     0.13700
H3335       H  0.64651381  0.28797465  0.38174191     0.31900
H3336       H  0.58983653  0.21176977  0.35778065     0.34600
C3337       C  0.63188178  0.13090332  0.53276663     0.20200
C3338       C  0.63826454  0.13938702  0.56329872    -0.39600
C3339       C  0.63079791  0.13275441  0.59442303     0.19200
C3340       C  0.61807263  0.11865593  0.59524840     0.21900
C3341       C  0.61175919  0.11010681  0.56473407    -0.40100
C3342       C  0.61911060  0.11684520  0.53358277     0.20700
N3343       N  0.63621395  0.13521233  0.49974398    -0.33400
C3344       C  0.62598861  0.12387787  0.47948077    -0.11000
C3345       C  0.61525885  0.11217406  0.49967143    -0.29800
N3346       N  0.61311266  0.11492118  0.62819761    -0.46400
C3347       C  0.62280228  0.12675559  0.64837792    -0.05700
C3348       C  0.63391843  0.13810366  0.62823627    -0.23000
H3349       H  0.64811749  0.15049025  0.56284474     0.18800
H3350       H  0.60168364  0.09920764  0.56516636     0.17600
H3351       H  0.60556666  0.10193497  0.49068975     0.13900
H3352       H  0.64322004  0.14870512  0.63720950     0.13700
H3353       H  0.64519401  0.14548320  0.49153929     0.31900
H3354       H  0.60391312  0.10485329  0.63642673     0.34600
C3355       C  0.61728012  0.11795771  0.09454878     0.20200
C3356       C  0.60923987  0.11143540  0.06368382    -0.39600
C3357       C  0.61641132  0.11868011  0.03276715     0.19200
C3358       C  0.63059207  0.13131136  0.03246118     0.21900
C3359       C  0.63867606  0.13775234  0.06327274    -0.40100
C3360       C  0.63140906  0.13064289  0.09417130     0.20700
N3361       N  0.61250704  0.11383961  0.12747028    -0.33400
C3362       C  0.62361073  0.12415611  0.14803946    -0.11000
C3363       C  0.63563177  0.13467789  0.12817606    -0.29800
N3364       N  0.63490129  0.13607246  0.99966740    -0.46400
C3365       C  0.62335269  0.12635414  0.97903164    -0.05700
C3366       C  0.61159892  0.11542390  0.99872743    -0.23000
H3367       H  0.59809328  0.10164052  0.06372519     0.18800
H3368       H  0.64964637  0.14774571  0.06322690     0.17600
H3369       H  0.64587375  0.14429310  0.13742185     0.13900
H3370       H  0.60106119  0.10617723  0.98932923     0.13700
H3371       H  0.60213609  0.10491632  0.13539483     0.31900
H3372       H  0.64510198  0.14521701  0.99184555     0.34600
C3373       C  0.98247090  0.12184355  0.00080276     0.20200
C3374       C  0.99834505  0.11123256  0.00677913    -0.39600
C3375       C  0.01515865  0.12033387  0.00177601     0.19200
C3376       C  0.01593612  0.13858596  0.99178913     0.21900
C3377       C  0.00019681  0.14913228  0.98601907    -0.40100
C3378       C  0.98353015  0.14006906  0.99079626     0.20700
N3379       N  0.96489815  0.11611604  0.00036364    -0.33400
C3380       C  0.95485050  0.13080693  0.98963469    -0.11000
C3381       C  0.96605767  0.14597076  0.98372063    -0.29800
N3382       N  0.03321491  0.14367105  0.98542082    -0.46400
C3383       C  0.04372181  0.12860056  0.99099981    -0.05700
C3384       C  0.03298932  0.11375407  0.00173277    -0.23000
H3385       H  0.99766465  0.09678328  0.01328097     0.18800
H3386       H  0.00088667  0.16316746  0.97682133     0.17600
H3387       H  0.96207103  0.15924563  0.97351365     0.13900
H3388       H  0.03745880  0.09979449  0.00652073     0.13700
H3389       H  0.96017566  0.10280387  0.00506463     0.31900
H3390       H  0.03747533  0.15642984  0.97600964     0.34600
C3391       C  0.88753428  0.26675180  0.88371512     0.20200
C3392       C  0.89817847  0.25083551  0.88756274    -0.39600
C3393       C  0.88926539  0.23415921  0.88070003     0.19200
C3394       C  0.87104902  0.23326272  0.87091802     0.21900
C3395       C  0.86031066  0.24928705  0.86720572    -0.40100
C3396       C  0.86930757  0.26610576  0.87389417     0.20700
N3397       N  0.89276414  0.28411011  0.89028784    -0.33400
C3398       C  0.87785622  0.29484645  0.88474284    -0.11000
C3399       C  0.86289622  0.28409623  0.87428295    -0.29800
N3400       N  0.86556139  0.21557043  0.86845309    -0.46400
C3401       C  0.88039148  0.20520785  0.87702323    -0.05700
C3402       C  0.89542771  0.21640832  0.88451298    -0.23000
H3403       H  0.91229275  0.25137744  0.89616835     0.18800
H3404       H  0.84593528  0.24868098  0.86042156     0.17600
H3405       H  0.84908611  0.28871880  0.86896216     0.13900
H3406       H  0.90877533  0.21216094  0.89382683     0.13700
H3407       H  0.90567414  0.28834823  0.89889892     0.31900
H3408       H  0.85230695  0.21088517  0.86336335     0.34600
C3409       C  0.76561478  0.13123223  0.87655974     0.20200
C3410       C  0.74953754  0.14196529  0.87634864    -0.39600
C3411       C  0.73301434  0.13226571  0.87190679     0.19200
C3412       C  0.73262045  0.11337076  0.86751985     0.21900
C3413       C  0.74861724  0.10265156  0.86808146    -0.40100
C3414       C  0.76505997  0.11229637  0.87300260     0.20700
N3415       N  0.78298986  0.13700010  0.88138089    -0.33400
C3416       C  0.79351670  0.12157700  0.88153058    -0.11000
C3417       C  0.78276633  0.10593314  0.87629976    -0.29800
N3418       N  0.71538126  0.10745964  0.86254969    -0.46400
C3419       C  0.70457510  0.12262926  0.86404775    -0.05700
C3420       C  0.71508319  0.13839239  0.87007530    -0.23000
H3421       H  0.74985588  0.15675617  0.87955962     0.18800
H3422       H  0.74827580  0.08784668  0.86509816     0.17600
H3423       H  0.78726857  0.09174730  0.87581262     0.13900
H3424       H  0.71031978  0.15247225  0.87159673     0.13700
H3425       H  0.78732701  0.15050281  0.88572052     0.31900
H3426       H  0.71124335  0.09392307  0.85784623     0.34600
C3427       C  0.98354571  0.13847078  0.49256599     0.20200
C3428       C  0.99932068  0.14869858  0.48557711    -0.39600
C3429       C  0.01592044  0.13929218  0.48904399     0.19200
C3430       C  0.01688522  0.12103869  0.49892656     0.21900
C3431       C  0.00099735  0.11073704  0.50603981    -0.40100
C3432       C  0.98424103  0.12018195  0.50236585     0.20700
N3433       N  0.96623351  0.14386561  0.48720285    -0.33400
C3434       C  0.95560543  0.12895473  0.49302058    -0.11000
C3435       C  0.96632276  0.11390465  0.50318360    -0.29800
N3436       N  0.03435893  0.11503259  0.49782525    -0.46400
C3437       C  0.04444032  0.12958876  0.48688819    -0.05700
C3438       C  0.03336901  0.14494207  0.48136718    -0.23000
H3439       H  0.99866134  0.16276698  0.47654043     0.18800
H3440       H  0.00160150  0.09627361  0.51247866     0.17600
H3441       H  0.96179817  0.09993888  0.50757740     0.13900
H3442       H  0.03744791  0.15826736  0.47160146     0.13700
H3443       H  0.96201589  0.15664545  0.47775243     0.31900
H3444       H  0.03902212  0.10171844  0.50283996     0.34600
C3445       C  0.87273611  0.23143877  0.36713843     0.20200
C3446       C  0.86142701  0.24714601  0.36518359    -0.39600
C3447       C  0.87014244  0.26416902  0.37105086     0.19200
C3448       C  0.88863734  0.26527271  0.37859117     0.21900
C3449       C  0.89984555  0.24965034  0.38085890    -0.40100
C3450       C  0.89121029  0.23275813  0.37473017     0.20700
N3451       N  0.86762869  0.21365083  0.36530143    -0.33400
C3452       C  0.88292286  0.20362948  0.37225508    -0.11000
C3453       C  0.89791984  0.21513819  0.37787849    -0.29800
N3454       N  0.89358578  0.28274272  0.38470187    -0.46400
C3455       C  0.87823441  0.29309263  0.38112053    -0.05700
C3456       C  0.86324598  0.28197111  0.37247009    -0.23000
H3457       H  0.84686502  0.24615200  0.36028454     0.18800
H3458       H  0.91418929  0.25055847  0.38779912     0.17600
H3459       H  0.91157767  0.21118588  0.38592953     0.13900
H3460       H  0.84915220  0.28621254  0.36906733     0.13700
H3461       H  0.85431607  0.20868451  0.36206954     0.31900
H3462       H  0.90663813  0.28729509  0.39181425     0.34600
C3463       C  0.87858605  0.11577000  0.65205736     0.20200
C3464       C  0.88615597  0.10858313  0.68267420    -0.39600
C3465       C  0.87904836  0.11575814  0.71380373     0.19200
C3466       C  0.86538120  0.12897841  0.71454818     0.21900
C3467       C  0.85775887  0.13609754  0.68393604    -0.40100
C3468       C  0.86495602  0.12903008  0.65280328     0.20700
N3469       N  0.88362530  0.11199613  0.61910518    -0.33400
C3470       C  0.87326295  0.12315329  0.59889794    -0.11000
C3471       C  0.86134862  0.13380987  0.61895105    -0.29800
N3472       N  0.86124433  0.13373225  0.74752385    -0.46400
C3473       C  0.87238156  0.12339976  0.76779206    -0.05700
C3474       C  0.88367887  0.11207725  0.74769365    -0.23000
H3475       H  0.89700667  0.09843267  0.68230626     0.18800
H3476       H  0.84727366  0.14662637  0.68430696     0.17600
H3477       H  0.85168793  0.14406097  0.60997911     0.13900
H3478       H  0.89397678  0.10248228  0.75671949     0.13700
H3479       H  0.89380278  0.10283894  0.61097063     0.31900
H3480       H  0.85152944  0.14337674  0.75568355     0.34600
C3481       C  0.86986695  0.13103854  0.15192786     0.20200
C3482       C  0.86203937  0.13876726  0.18196377    -0.39600
C3483       C  0.86778540  0.13115311  0.21361988     0.19200
C3484       C  0.88037839  0.11693822  0.21513264     0.21900
C3485       C  0.88826391  0.10924031  0.18506577    -0.40100
C3486       C  0.88250677  0.11686117  0.15337343     0.20700
N3487       N  0.86632714  0.13560236  0.11879161    -0.33400
C3488       C  0.87672354  0.12424723  0.09887636    -0.11000
C3489       C  0.88712063  0.11239452  0.11949475    -0.29800
N3490       N  0.88372136  0.11227965  0.24833434    -0.46400
C3491       C  0.87326257  0.12365344  0.26814142    -0.05700
C3492       C  0.86304845  0.13559273  0.24740642    -0.23000
H3493       H  0.85216700  0.14985882  0.18073990     0.18800
H3494       H  0.89810301  0.09811921  0.18627720     0.17600
H3495       H  0.89647798  0.10176280  0.11087415     0.13900
H3496       H  0.85370011  0.14626079  0.25589945     0.13700
H3497       H  0.85718121  0.14568847  0.11025298     0.31900
H3498       H  0.89277446  0.10213827  0.25699330     0.34600
C3499       C  0.76607356  0.13228687  0.38080017     0.20200
C3500       C  0.74969207  0.14260101  0.38234349    -0.39600
C3501       C  0.73346943  0.13306107  0.37360945     0.19200
C3502       C  0.73368267  0.11474163  0.36373842     0.21900
C3503       C  0.74995115  0.10441358  0.36270867    -0.40100
C3504       C  0.76604558  0.11383580  0.37185783     0.20700
N3505       N  0.78327505  0.13797442  0.38813473    -0.33400
C3506       C  0.79418731  0.12293513  0.38438246    -0.11000
C3507       C  0.78386174  0.10763111  0.37444515    -0.29800
N3508       N  0.71668363  0.10885290  0.35600276    -0.46400
C3509       C  0.70530238  0.12337526  0.36123123    -0.05700
C3510       C  0.71531575  0.13877423  0.37238398    -0.23000
H3511       H  0.74957569  0.15696062  0.38988298     0.18800
H3512       H  0.75005813  0.09001394  0.35543811     0.17600
H3513       H  0.78874570  0.09375811  0.37001400     0.13900
H3514       H  0.71007599  0.15236844  0.37822415     0.13700
H3515       H  0.78727061  0.15108990  0.39632973     0.31900
H3516       H  0.71304209  0.09567153  0.34757571     0.34600
C3517       C  0.88981105  0.76630555  0.62189476     0.20200
C3518       C  0.89976491  0.75010582  0.61575375    -0.39600
C3519       C  0.89004746  0.73361234  0.61951572     0.19200
C3520       C  0.87176992  0.73313425  0.62885063     0.21900
C3521       C  0.86177981  0.74942510  0.63511045    -0.40100
C3522       C  0.87152609  0.76602703  0.63123596     0.20700
N3523       N  0.89555594  0.78363872  0.61677263    -0.33400
C3524       C  0.88086711  0.79465985  0.62262665    -0.11000
C3525       C  0.86563446  0.78415175  0.63209317    -0.29800
N3526       N  0.86540709  0.71568534  0.62787765    -0.46400
C3527       C  0.87973913  0.70507567  0.61743872    -0.05700
C3528       C  0.89531978  0.71583826  0.61231460    -0.23000
H3529       H  0.91387893  0.75034581  0.60722436     0.18800
H3530       H  0.84732108  0.74922362  0.64118371     0.17600
H3531       H  0.85181853  0.78900495  0.63652294     0.13900
H3532       H  0.90854994  0.71135062  0.60284538     0.13700
H3533       H  0.90846027  0.78763737  0.60790470     0.31900
H3534       H  0.85197533  0.71140122  0.63233701     0.34600
C3535       C  0.98293937  0.87877709  0.50242161     0.20200
C3536       C  0.99876970  0.88980180  0.50033066    -0.39600
C3537       C  0.01553990  0.88076542  0.50650332     0.19200
C3538       C  0.01632897  0.86221733  0.51427848     0.21900
C3539       C  0.00060703  0.85124421  0.51624745    -0.40100
C3540       C  0.98395740  0.86022259  0.51004077     0.20700
N3541       N  0.96531463  0.88430061  0.50112225    -0.33400
C3542       C  0.95512163  0.86917831  0.50842551    -0.11000
C3543       C  0.96633537  0.85388764  0.51368422    -0.29800
N3544       N  0.03357145  0.85704490  0.52130561    -0.46400
C3545       C  0.04406742  0.87230015  0.51793954    -0.05700
C3546       C  0.03330432  0.88743661  0.50854361    -0.23000
H3547       H  0.99803665  0.90443372  0.49547396     0.18800
H3548       H  0.00124370  0.83687523  0.52341683     0.17600
H3549       H  0.96220720  0.84027738  0.52184281     0.13900
H3550       H  0.03774906  0.90149920  0.50504811     0.13700
H3551       H  0.96059230  0.89776475  0.49808733     0.31900
H3552       H  0.03788014  0.84393070  0.52877197     0.34600
C3553       C  0.87975269  0.98321905  0.49849434     0.20200
C3554       C  0.89044002  0.99868278  0.49038843    -0.39600
C3555       C  0.88123506  0.01567471  0.49079745     0.19200
C3556       C  0.86272192  0.01707093  0.49800737     0.21900
C3557       C  0.85210612  0.00167476  0.50655818    -0.40100
C3558       C  0.86137176  0.98476584  0.50671687     0.20700
N3559       N  0.88536571  0.96562831  0.50114740    -0.33400
C3560       C  0.87051542  0.95598508  0.51177276    -0.11000
C3561       C  0.85529084  0.96747034  0.51535838    -0.29800
N3562       N  0.85700686  0.03457542  0.49513182    -0.46400
C3563       C  0.87200620  0.04449154  0.48645645    -0.05700
C3564       C  0.88744850  0.03321646  0.48387730    -0.23000
H3565       H  0.90487075  0.99757876  0.48438613     0.18800
H3566       H  0.83770286  0.00279194  0.51280439     0.17600
H3567       H  0.84172202  0.96374456  0.52412987     0.13900
H3568       H  0.90117651  0.03720984  0.47655276     0.13700
H3569       H  0.89861977  0.96062246  0.49728347     0.31900
H3570       H  0.84367389  0.03947059  0.49850632     0.34600
C3571       C  0.87257453  0.76710922  0.13235119     0.20200
C3572       C  0.86188695  0.75122456  0.13764883    -0.39600
C3573       C  0.87079692  0.73428163  0.13175541     0.19200
C3574       C  0.88895701  0.73341919  0.12165208     0.21900
C3575       C  0.89956140  0.74918550  0.11641525    -0.40100
C3576       C  0.89067512  0.76597841  0.12199034     0.20700
N3577       N  0.86697935  0.78479168  0.13278729    -0.33400
C3578       C  0.88158524  0.79484944  0.12214420    -0.11000
C3579       C  0.89661648  0.78354433  0.11545897    -0.29800
N3580       N  0.89393410  0.71605013  0.11472181    -0.46400
C3581       C  0.87890448  0.70553134  0.11995971    -0.05700
C3582       C  0.86415188  0.71639550  0.13106963    -0.23000
H3583       H  0.84752135  0.75202064  0.14433856     0.18800
H3584       H  0.91351459  0.74842948  0.10706062     0.17600
H3585       H  0.90976706  0.78752469  0.10495164     0.13900
H3586       H  0.85023893  0.71199277  0.13585827     0.13700
H3587       H  0.85375693  0.78959152  0.13780188     0.31900
H3588       H  0.90665410  0.71172464  0.10533450     0.34600
C3589       C  0.98219040  0.86069067  0.00810046     0.20200
C3590       C  0.99803687  0.85032129  0.01404602    -0.39600
C3591       C  0.01461754  0.85969018  0.01016552     0.19200
C3592       C  0.01549333  0.87804223  0.00092510     0.21900
C3593       C  0.99952917  0.88850476  0.99507519    -0.40100
C3594       C  0.98281599  0.87909311  0.99910354     0.20700
N3595       N  0.96488727  0.85520206  0.01314140    -0.33400
C3596       C  0.95421877  0.87017338  0.00769574    -0.11000
C3597       C  0.96490095  0.88538062  0.99859296    -0.29800
N3598       N  0.03297049  0.88402070  0.00191554    -0.46400
C3599       C  0.04314783  0.86939793  0.01239899    -0.05700
C3600       C  0.03213141  0.85397340  0.01738162    -0.23000
H3601       H  0.99746936  0.83615214  0.02250998     0.18800
H3602       H  0.00006452  0.90303715  0.98919371     0.17600
H3603       H  0.96030948  0.89936698  0.99452124     0.13900
H3604       H  0.03624314  0.84064436  0.02716281     0.13700
H3605       H  0.96069333  0.84227404  0.02168468     0.31900
H3606       H  0.03753668  0.89744756  0.99773814     0.34600
C3607       C  0.87159360  0.86631114  0.84798916     0.20200
C3608       C  0.86446896  0.85761525  0.81818281    -0.39600
C3609       C  0.87032995  0.86475591  0.78625725     0.19200
C3610       C  0.88237158  0.87940284  0.78440896     0.21900
C3611       C  0.88950638  0.88807552  0.81419912    -0.40100
C3612       C  0.88366468  0.88093205  0.84608560     0.20700
N3613       N  0.86780902  0.86239941  0.88127163    -0.33400
C3614       C  0.87751272  0.87460404  0.90071349    -0.11000
C3615       C  0.88767684  0.88636274  0.87973195    -0.29800
N3616       N  0.88565268  0.88379158  0.75116231    -0.46400
C3617       C  0.87560787  0.87193561  0.73157262    -0.05700
C3618       C  0.86585345  0.85978193  0.75251377    -0.23000
H3619       H  0.85495678  0.84624900  0.81976433     0.18800
H3620       H  0.89880501  0.89961941  0.81263442     0.17600
H3621       H  0.89649550  0.89753264  0.88793909     0.13900
H3622       H  0.85670576  0.84890402  0.74421610     0.13700
H3623       H  0.85898135  0.85215739  0.89018758     0.31900
H3624       H  0.89408489  0.89439145  0.74236362     0.34600
C3625       C  0.88107319  0.88103896  0.28410461     0.20200
C3626       C  0.89006404  0.88813817  0.31357223    -0.39600
C3627       C  0.88261884  0.88312889  0.34572970     0.19200
C3628       C  0.86744758  0.87182422  0.34812825     0.21900
C3629       C  0.85858679  0.86452837  0.31866248    -0.40100
C3630       C  0.86599290  0.86960722  0.28648123     0.20700
N3631       N  0.88523593  0.88417700  0.25070807    -0.33400
C3632       C  0.87282129  0.87463469  0.23154168    -0.11000
C3633       C  0.86056487  0.86528375  0.25291497    -0.29800
N3634       N  0.86301144  0.86911898  0.38153669    -0.46400
C3635       C  0.87546712  0.87866442  0.40064329    -0.05700
C3636       C  0.88793990  0.88766677  0.37924154    -0.23000
H3637       H  0.90189220  0.89701890  0.31156016     0.18800
H3638       H  0.84674401  0.85566670  0.32067862     0.17600
H3639       H  0.84919327  0.85668112  0.24501279     0.13900
H3640       H  0.89946253  0.89607545  0.38709518     0.13700
H3641       H  0.89591965  0.89236311  0.24152537     0.31900
H3642       H  0.85222823  0.86107992  0.39077080     0.34600
C3643       C  0.88004364  0.98375603  0.00480240     0.20200
C3644       C  0.89088131  0.99961145  0.00087567    -0.39600
C3645       C  0.88125744  0.01617563  0.99593485     0.19200
C3646       C  0.86232714  0.01678767  0.99461103     0.21900
C3647       C  0.85153484  0.00102266  0.99888357    -0.40100
C3648       C  0.86111466  0.98455660  0.00423563     0.20700
N3649       N  0.88576010  0.96639149  0.01039964    -0.33400
C3650       C  0.87033731  0.95616916  0.01401287    -0.11000
C3651       C  0.85471874  0.96704516  0.01029329    -0.29800
N3652       N  0.85642432  0.03398101  0.98858472    -0.46400
C3653       C  0.87164849  0.04452713  0.98627326    -0.05700
C3654       C  0.88744724  0.03393532  0.99093691    -0.23000
H3655       H  0.90568444  0.99909728  0.00167319     0.18800
H3656       H  0.83673013  0.00155268  0.99819259     0.17600
H3657       H  0.84057788  0.96273552  0.01216524     0.13900
H3658       H  0.90152569  0.03851592  0.98977650     0.13700
H3659       H  0.89928545  0.96187246  0.01273342     0.31900
H3660       H  0.84283880  0.03826131  0.98589395     0.34600
C3661       C  0.61020454  0.76765364  0.62555486     0.20200
C3662       C  0.60003105  0.75168760  0.63189384    -0.39600
C3663       C  0.60963898  0.73506840  0.62899935     0.19200
C3664       C  0.62800784  0.73428633  0.62035078     0.21900
C3665       C  0.63822593  0.75034127  0.61405034    -0.40100
C3666       C  0.62859452  0.76706162  0.61700802     0.20700
N3667       N  0.60457529  0.78508253  0.62990303    -0.33400
C3668       C  0.61944938  0.79582963  0.62441488    -0.11000
C3669       C  0.63469860  0.78507204  0.61594568    -0.29800
N3670       N  0.63418972  0.71680722  0.62180270    -0.46400
C3671       C  0.61964494  0.70649186  0.63180303    -0.05700
C3672       C  0.60411491  0.71744790  0.63629306    -0.23000
H3673       H  0.58583246  0.75220997  0.63987215     0.18800
H3674       H  0.65274459  0.74989162  0.60855218     0.17600
H3675       H  0.64863016  0.78969739  0.61219542     0.13900
H3676       H  0.59074850  0.71318956  0.64531743     0.13700
H3677       H  0.59162400  0.78932932  0.63822299     0.31900
H3678       H  0.64762185  0.71232316  0.61789735     0.34600
C3679       C  0.51717475  0.87850073  0.74854851     0.20200
C3680       C  0.50138298  0.88932479  0.75376579    -0.39600
C3681       C  0.48452226  0.88017540  0.74962457     0.19200
C3682       C  0.48362577  0.86171189  0.74086837     0.21900
C3683       C  0.49931290  0.85096957  0.73560956    -0.40100
C3684       C  0.51604675  0.86005622  0.73978309     0.20700
N3685       N  0.53475829  0.88411024  0.74824447    -0.33400
C3686       C  0.54478525  0.86913424  0.73889955    -0.11000
C3687       C  0.53354356  0.85388152  0.73364196    -0.29800
N3688       N  0.46625563  0.85651228  0.73549416    -0.46400
C3689       C  0.45580426  0.87170432  0.74053383    -0.05700
C3690       C  0.46669642  0.88677131  0.74985620    -0.23000
H3691       H  0.50216140  0.90390057  0.75940206     0.18800
H3692       H  0.49852882  0.83670593  0.72754404     0.17600
H3693       H  0.53753977  0.84034035  0.72458102     0.13900
H3694       H  0.46231334  0.90083922  0.75391880     0.13700
H3695       H  0.53952620  0.89749861  0.75219242     0.31900
H3696       H  0.46186742  0.84354551  0.72714223     0.34600
C3697       C  0.63496910  0.98503834  0.74306119     0.20200
C3698       C  0.64563576  0.00094380  0.74702985    -0.39600
C3699       C  0.63593556  0.01743277  0.75149094     0.19200
C3700       C  0.61700739  0.01815179  0.75162581     0.21900
C3701       C  0.60628995  0.00213810  0.74805707    -0.40100
C3702       C  0.61603594  0.98552734  0.74392702     0.20700
N3703       N  0.64102394  0.96780633  0.73770836    -0.33400
C3704       C  0.62592222  0.95704108  0.73539122    -0.11000
C3705       C  0.61001664  0.96760071  0.73935492    -0.29800
N3706       N  0.61118010  0.03560366  0.75638767    -0.46400
C3707       C  0.62654722  0.04597353  0.75976002    -0.05700
C3708       C  0.64221600  0.03506317  0.75687054    -0.23000
H3709       H  0.66044662  0.00050713  0.74668423     0.18800
H3710       H  0.59148327  0.00257815  0.74846323     0.17600
H3711       H  0.59598241  0.96289264  0.73798256     0.13900
H3712       H  0.65634020  0.03942355  0.75900997     0.13700
H3713       H  0.65466180  0.96363858  0.73540593     0.31900
H3714       H  0.59763128  0.04009165  0.75833497     0.34600
C3715       C  0.73372806  0.88777648  0.63222860     0.20200
C3716       C  0.74977589  0.89830847  0.63072981    -0.39600
C3717       C  0.76595141  0.88847376  0.62422582     0.19200
C3718       C  0.76621140  0.86954852  0.62015601     0.21900
C3719       C  0.75006006  0.85905282  0.62094480    -0.40100
C3720       C  0.73381220  0.86893359  0.62692296     0.20700
N3721       N  0.71669081  0.89384563  0.63859729    -0.33400
C3722       C  0.70574768  0.87882741  0.63681103    -0.11000
C3723       C  0.71591123  0.86301350  0.62943591    -0.29800
N3724       N  0.78343127  0.86349137  0.61486884    -0.46400
C3725       C  0.79413703  0.87872795  0.61495168    -0.05700
C3726       C  0.78367511  0.89455613  0.62049313    -0.23000
H3727       H  0.74967199  0.91307933  0.63436498     0.18800
H3728       H  0.75013419  0.84429131  0.61721373     0.17600
H3729       H  0.71092651  0.84905397  0.62699959     0.13900
H3730       H  0.78841540  0.90865009  0.62140356     0.13700
H3731       H  0.71275105  0.90738619  0.64392152     0.31900
H3732       H  0.78757017  0.84992836  0.61043954     0.34600
C3733       C  0.61022864  0.76674551  0.12471001     0.20200
C3734       C  0.60002107  0.75068854  0.13037966    -0.39600
C3735       C  0.60983018  0.73411345  0.12859704     0.19200
C3736       C  0.62839312  0.73348057  0.12153975     0.21900
C3737       C  0.63860351  0.74958174  0.11582438    -0.40100
C3738       C  0.62879511  0.76622949  0.11768051     0.20700
N3739       N  0.60444067  0.78419913  0.12835807    -0.33400
C3740       C  0.61938563  0.79501320  0.12380336    -0.11000
C3741       C  0.63483100  0.78425871  0.11676627    -0.29800
N3742       N  0.63471504  0.71608507  0.12366325    -0.46400
C3743       C  0.62006863  0.70563081  0.13244606    -0.05700
C3744       C  0.60432234  0.71642453  0.13557422    -0.23000
H3745       H  0.58563549  0.75111253  0.13706200     0.18800
H3746       H  0.65323837  0.74922145  0.11155327     0.17600
H3747       H  0.64881928  0.78891564  0.11405237     0.13900
H3748       H  0.59079565  0.71201107  0.14339185     0.13700
H3749       H  0.59130078  0.78843522  0.13554025     0.31900
H3750       H  0.64826899  0.71173546  0.12088972     0.34600
C3751       C  0.48333690  0.86109314  0.24076592     0.20200
C3752       C  0.49908735  0.85010181  0.23794665    -0.39600
C3753       C  0.51586385  0.85919109  0.24246990     0.19200
C3754       C  0.51693106  0.87782781  0.24960412     0.21900
C3755       C  0.50109710  0.88885143  0.25249897    -0.40100
C3756       C  0.48424077  0.87975207  0.24775480     0.20700
N3757       N  0.46596504  0.85589406  0.23483964    -0.33400
C3758       C  0.45553690  0.87126942  0.23794330    -0.11000
C3759       C  0.46646180  0.88647965  0.24624814    -0.29800
N3760       N  0.53453003  0.88344895  0.24931531    -0.46400
C3761       C  0.54470421  0.86835742  0.24125664    -0.05700
C3762       C  0.53348443  0.85293838  0.23726924    -0.23000
H3763       H  0.49835381  0.83565285  0.23117655     0.18800
H3764       H  0.50187477  0.90355530  0.25672146     0.17600
H3765       H  0.46211873  0.90064215  0.24905971     0.13900
H3766       H  0.53754709  0.83926967  0.22906410     0.13700
H3767       H  0.46152483  0.84270352  0.22801614     0.31900
H3768       H  0.53919731  0.89696211  0.25186530     0.34600
C3769       C  0.63293644  0.87107555  0.96382292     0.20200
C3770       C  0.63755039  0.86131303  0.93352513    -0.39600
C3771       C  0.63079190  0.86865942  0.90233743     0.19200
C3772       C  0.62019106  0.88445653  0.90127728     0.21900
C3773       C  0.61557385  0.89420665  0.93156711    -0.40100
C3774       C  0.62236726  0.88689126  0.96276680     0.20700
N3775       N  0.63699598  0.86655872  0.99688815    -0.33400
C3776       C  0.62874195  0.87949713  0.01696816    -0.11000
C3777       C  0.61968183  0.89250449  0.99658131    -0.29800
N3778       N  0.61577988  0.88876558  0.86827307    -0.46400
C3779       C  0.62380632  0.87567200  0.84829333    -0.05700
C3780       C  0.63317982  0.86285655  0.86860283    -0.23000
H3781       H  0.64573394  0.84889843  0.93417472     0.18800
H3782       H  0.60723574  0.90651594  0.93092221     0.17600
H3783       H  0.61153135  0.90405871  0.00539939     0.13900
H3784       H  0.64107472  0.85112418  0.85976399     0.13700
H3785       H  0.64423248  0.85498958  0.00528346     0.31900
H3786       H  0.60827116  0.90015055  0.85984082     0.34600
C3787       C  0.63032867  0.86709660  0.40122457     0.20200
C3788       C  0.63828571  0.85965657  0.43141277    -0.39600
C3789       C  0.63268002  0.86762386  0.46300565     0.19200
C3790       C  0.62012447  0.88188547  0.46427395     0.21900
C3791       C  0.61218683  0.88931354  0.43413609    -0.40100
C3792       C  0.61777219  0.88135143  0.40259465     0.20700
N3793       N  0.63362153  0.86221581  0.36803043    -0.33400
C3794       C  0.62314969  0.87350053  0.34812633    -0.11000
C3795       C  0.61297938  0.88555473  0.36878394    -0.29800
N3796       N  0.61683752  0.88688847  0.49734913    -0.46400
C3797       C  0.62732132  0.87572789  0.51740053    -0.05700
C3798       C  0.63747138  0.86353857  0.49692985    -0.23000
H3799       H  0.64811129  0.84851541  0.43036660     0.18800
H3800       H  0.60239442  0.90048480  0.43518417     0.17600
H3801       H  0.60368972  0.89622920  0.36019515     0.13900
H3802       H  0.64677956  0.85292172  0.50570223     0.13700
H3803       H  0.64270176  0.85205693  0.35944813     0.31900
H3804       H  0.60777706  0.89710435  0.50576407     0.34600
C3805       C  0.61709982  0.01731791  0.24921116     0.20200
C3806       C  0.60662748  0.00106238  0.24858192    -0.39600
C3807       C  0.61642448  0.98465693  0.24270730     0.19200
C3808       C  0.63515617  0.98456883  0.23740535     0.21900
C3809       C  0.64562588  0.00073798  0.23845693    -0.40100
C3810       C  0.63589572  0.01704384  0.24479775     0.20700
N3811       N  0.61122629  0.03458881  0.25555348    -0.33400
C3812       C  0.62646546  0.04527562  0.25594809    -0.11000
C3813       C  0.64207848  0.03480373  0.24918322    -0.29800
N3814       N  0.64121175  0.96740054  0.23138039    -0.46400
C3815       C  0.62632129  0.95630842  0.23313452    -0.05700
C3816       C  0.61056944  0.96657789  0.24036709    -0.23000
H3817       H  0.59196915  0.00116503  0.25261798     0.18800
H3818       H  0.66032229  0.00060981  0.23491568     0.17600
H3819       H  0.65613032  0.03949571  0.24854892     0.13900
H3820       H  0.59667740  0.96156904  0.24260086     0.13700
H3821       H  0.59781577  0.03871530  0.26089311     0.31900
H3822       H  0.65468737  0.96348329  0.22604759     0.34600
C3823       C  0.73363476  0.86955969  0.13354012     0.20200
C3824       C  0.74987382  0.85916114  0.13583755    -0.39600
C3825       C  0.76626240  0.86890024  0.13042427     0.19200
C3826       C  0.76636226  0.88751133  0.12303039     0.21900
C3827       C  0.75021353  0.89791144  0.12114645    -0.40100
C3828       C  0.73391011  0.88824519  0.12688521     0.20700
N3829       N  0.71629920  0.86368036  0.13800142    -0.33400
C3830       C  0.70552253  0.87880656  0.13471279    -0.11000
C3831       C  0.71606685  0.89437249  0.12782331    -0.29800
N3832       N  0.78346175  0.89340830  0.11698423    -0.46400
C3833       C  0.79447299  0.87850512  0.12045493    -0.05700
C3834       C  0.78426411  0.86295399  0.12929167    -0.23000
H3835       H  0.74975089  0.84456361  0.14121057     0.18800
H3836       H  0.75033747  0.91247686  0.11545317     0.17600
H3837       H  0.71132310  0.90837134  0.12458642     0.13900
H3838       H  0.78922278  0.84904165  0.13266353     0.13700
H3839       H  0.71210976  0.85036275  0.14419556     0.31900
H3840       H  0.78732836  0.90668055  0.10974751     0.34600
loop_ 
_geom_bond_atom_site_label_1 
_geom_bond_atom_site_label_2 
_geom_bond_distance 
_geom_bond_site_symmetry_2 
_ccdc_geom_bond_type 
Zr1           O2   2.441       .  S
Zr1           O3   2.453       .  S
Zr1           O4   2.467       .  S
Zr1           O7   2.466       .  S
Zr1           O9   2.385       .  S
Zr1          O10   2.392       .  S
Zr1          O11   2.415       .  S
Zr1          O12   2.400       .  S
O2           H58   0.990       .  S
O2           H66   0.991       .  S
O3           C23   1.286       .  A
O4           C25   1.289       .  A
O5          Zr15   2.423       .  S
O5           C24   1.283       .  A
O6          Zr14   2.436       .  S
O6           C25   1.285       .  A
O7           C24   1.290       .  A
O8          Zr16   2.400       .  S
O8           C23   1.277       .  A
O9          Zr14   2.396       .  S
O9          Zr16   2.386       .  S
O10         Zr15   2.396       .  S
O10         Zr16   2.380       .  S
O10          H45   0.957       .  S
O11         Zr14   2.398       .  S
O11         Zr31   2.385       .  S
O11          H48   0.959       .  S
O12         Zr15   2.389       .  S
O12         Zr31   2.384       .  S
Zr13         O38   2.444       .  S
Zr13         O32   2.453       .  S
Zr13         O40   2.475       .  S
Zr13         O28   2.474       .  S
Zr13         O19   2.402       .  S
Zr13         O20   2.418       .  S
Zr13         O21   2.389       .  S
Zr13         O22   2.391       .  S
Zr14         O33   2.438       .  S
Zr14         O26   2.434       .  S
Zr14         O27   2.430       .  S
Zr14         O20   2.402       .  S
Zr14         O21   2.396       .  S
Zr15         O17   2.434       .  S
Zr15         O39   2.442       .  S
Zr15         O41   2.424       .  S
Zr15         O19   2.391       .  S
Zr15         O22   2.392       .  S
Zr16         O42   2.435       .  S
Zr16         O43   2.435       .  S
Zr16         O18   2.437       .  S
Zr16         O19   2.387       .  S
Zr16         O20   2.384       .  S
O17          H54   0.990       .  S
O18          H49   0.990       .  S
O18          H63   0.990       .  S
O20          H46   0.966       .  S
O21         Zr31   2.383       .  S
O22         Zr31   2.385       .  S
O22          H47   0.951       .  S
C23        C3794   1.471       .  S
C24        C3815   1.480       .  S
C25        C3761   1.485       .  S
O26          H62   0.990       .  S
O27          C29   1.284       .  A
O28          C29   1.292       .  A
C29        C3740   1.482       .  S
O30         Zr31   2.439       .  S
O30          H59   0.990       .  S
Zr31         O34   2.438       .  S
Zr31         O35   2.439       .  S
Zr31         O36   2.401       .  S
O32          C37   1.285       .  A
O33          H50   0.990       .  S
O33          H65   0.990       .  S
O34          H51   0.990       .  S
O35          H55   0.989       .  S
O35          H64   0.991       .  S
O36          C37   1.278       .  A
C37        C3776   1.469       .  S
O38          H57   0.991       .  S
O38          H61   0.991       .  S
O39          H53   0.990       .  S
O39          H60   0.990       .  S
O40          C44   1.290       .  A
O41          C44   1.282       .  A
O42          H52   0.990       .  S
O43          H56   0.990       .  S
C44        C3830   1.480       .  S
Zr67         O68   2.442       .  S
Zr67         O69   2.451       .  S
Zr67         O70   2.464       .  S
Zr67         O73   2.460       .  S
Zr67         O75   2.386       .  S
Zr67         O76   2.392       .  S
Zr67         O77   2.415       .  S
Zr67         O78   2.403       .  S
O68         H124   0.990       .  S
O68         H132   0.991       .  S
O69          C89   1.285       .  A
O70          C91   1.287       .  A
O71         Zr81   2.432       .  S
O71          C90   1.284       .  A
O72         Zr80   2.423       .  S
O72          C91   1.283       .  A
O73          C90   1.289       .  A
O74         Zr82   2.382       .  S
O74          C89   1.274       .  A
O75         Zr80   2.393       .  S
O75         Zr82   2.387       .  S
O76         Zr81   2.392       .  S
O76         Zr82   2.383       .  S
O76         H111   0.967       .  S
O77         Zr80   2.400       .  S
O77         Zr97   2.385       .  S
O77         H114   0.962       .  S
O78         Zr81   2.388       .  S
O78         Zr97   2.390       .  S
Zr79        O104   2.442       .  S
Zr79         O98   2.445       .  S
Zr79        O106   2.449       .  S
Zr79         O94   2.470       .  S
Zr79         O85   2.401       .  S
Zr79         O86   2.410       .  S
Zr79         O87   2.380       .  S
Zr79         O88   2.396       .  S
Zr80         O99   2.437       .  S
Zr80         O92   2.435       .  S
Zr80         O93   2.416       .  S
Zr80         O86   2.394       .  S
Zr80         O87   2.394       .  S
Zr81         O83   2.435       .  S
Zr81        O105   2.439       .  S
Zr81        O107   2.423       .  S
Zr81         O85   2.389       .  S
Zr81         O88   2.396       .  S
Zr82        O108   2.435       .  S
Zr82        O109   2.438       .  S
Zr82         O84   2.438       .  S
Zr82         O85   2.374       .  S
Zr82         O86   2.382       .  S
O83         H120   0.990       .  S
O84         H115   0.990       .  S
O84         H129   0.990       .  S
O86         H112   0.961       .  S
O87         Zr97   2.380       .  S
O88         Zr97   2.382       .  S
O88         H113   0.969       .  S
C89        C3779   1.464       .  S
C90        C3704   1.481       .  S
C91        C3686   1.477       .  S
O92         H128   0.990       .  S
O93          C95   1.281       .  A
O94          C95   1.289       .  A
C95        C3668   1.478       .  S
O96         Zr97   2.439       .  S
O96         H125   0.990       .  S
Zr97        O100   2.439       .  S
Zr97        O101   2.439       .  S
Zr97        O102   2.403       .  S
O98         C103   1.285       .  A
O99         H116   0.990       .  S
O99         H131   0.990       .  S
O100        H117   0.990       .  S
O101        H121   0.990       .  S
O101        H130   0.990       .  S
O102        C103   1.278       .  A
C103       C3797   1.469       .  S
O104        H123   0.991       .  S
O104        H127   0.990       .  S
O105        H119   0.990       .  S
O105        H126   0.990       .  S
O106        C110   1.287       .  A
O107        C110   1.283       .  A
O108        H118   0.990       .  S
O109        H122   0.990       .  S
C110       C3722   1.472       .  S
Zr133       O134   2.442   1_554  S
Zr133       O135   2.444   1_554  S
Zr133       O136   2.457       .  S
Zr133       O139   2.451       .  S
Zr133       O141   2.383       .  S
Zr133       O142   2.390       .  S
Zr133       O143   2.410       .  S
Zr133       O144   2.400       .  S
O134        H190   0.990       .  S
O134        H198   0.991   1_556  S
O135        C155   1.285       .  A
O136        C157   1.287       .  A
O137       Zr147   2.430       .  S
O137        C156   1.285       .  A
O138       Zr146   2.427       .  S
O138        C157   1.283       .  A
O139        C156   1.287       .  A
O140       Zr148   2.393   1_556  S
O140        C155   1.275       .  A
O141       Zr146   2.390       .  S
O141       Zr148   2.382       .  S
O142       Zr147   2.392       .  S
O142       Zr148   2.379       .  S
O142        H177   0.967   1_554  S
O143       Zr146   2.395       .  S
O143       Zr163   2.379       .  S
O143        H180   0.963       .  S
O144       Zr147   2.388       .  S
O144       Zr163   2.383       .  S
Zr145       O170   2.443       .  S
Zr145       O164   2.448       .  S
Zr145       O172   2.457       .  S
Zr145       O160   2.460       .  S
Zr145       O151   2.404       .  S
Zr145       O152   2.409       .  S
Zr145       O153   2.388       .  S
Zr145       O154   2.388       .  S
Zr146       O165   2.435       .  S
Zr146       O158   2.436       .  S
Zr146       O159   2.421       .  S
Zr146       O152   2.398       .  S
Zr146       O153   2.395       .  S
Zr147       O149   2.434       .  S
Zr147       O171   2.436       .  S
Zr147       O173   2.422       .  S
Zr147       O151   2.396       .  S
Zr147       O154   2.393       .  S
Zr148       O174   2.437   1_554  S
Zr148       O175   2.436       .  S
Zr148       O150   2.438   1_554  S
Zr148       O151   2.387       .  S
Zr148       O152   2.381       .  S
O149        H186   0.990       .  S
O150        H181   0.990       .  S
O150        H195   0.990       .  S
O152        H178   0.968       .  S
O153       Zr163   2.384       .  S
O154       Zr163   2.378       .  S
O154        H179   0.970       .  S
C155       C3614   1.465       .  S
C156       C3650   1.477       .  S
C157       C3596   1.476       .  S
O158        H194   0.990       .  S
O159        C161   1.283       .  A
O160        C161   1.288       .  A
C161       C3578   1.477       .  S
O162       Zr163   2.435       .  S
O162        H191   0.990       .  S
Zr163       O166   2.438       .  S
Zr163       O167   2.437       .  S
Zr163       O168   2.398       .  S
O164        C169   1.285       .  A
O165        H182   0.990       .  S
O165        H197   0.990       .  S
O166        H183   0.990       .  S
O167        H187   0.990       .  S
O167        H196   0.990       .  S
O168        C169   1.277       .  A
C169       C3632   1.468       .  S
O170        H189   0.991       .  S
O170        H193   0.990       .  S
O171        H185   0.990       .  S
O171        H192   0.990       .  S
O172        C176   1.287       .  A
O173        C176   1.283       .  A
O174        H184   0.990       .  S
O175        H188   0.990       .  S
C176       C3833   1.477       .  S
Zr199       O200   2.441       .  S
Zr199       O201   2.454       .  S
Zr199       O202   2.467       .  S
Zr199       O205   2.470       .  S
Zr199       O207   2.389       .  S
Zr199       O208   2.392       .  S
Zr199       O209   2.416       .  S
Zr199       O210   2.400       .  S
O200        H256   0.990       .  S
O200        H264   0.991       .  S
O201        C221   1.286       .  A
O202        C223   1.289       .  A
O203       Zr213   2.415       .  S
O203        C222   1.281       .  A
O204       Zr212   2.432       .  S
O204        C223   1.284       .  A
O205        C222   1.290       .  A
O206       Zr214   2.392       .  S
O206        C221   1.276       .  A
O207       Zr212   2.394       .  S
O207       Zr214   2.387       .  S
O208       Zr213   2.391       .  S
O208       Zr214   2.378       .  S
O208        H243   0.966       .  S
O209       Zr212   2.402       .  S
O209       Zr229   2.388       .  S
O209        H246   0.963       .  S
O210       Zr213   2.389       .  S
O210       Zr229   2.383       .  S
Zr211       O236   2.442       .  S
Zr211       O230   2.454       .  S
Zr211       O238   2.459       .  S
Zr211       O226   2.459       .  S
Zr211       O217   2.408       .  S
Zr211       O218   2.410       .  S
Zr211       O219   2.385       .  S
Zr211       O220   2.389       .  S
Zr212       O231   2.439       .  S
Zr212       O224   2.435       .  S
Zr212       O225   2.427       .  S
Zr212       O218   2.395       .  S
Zr212       O219   2.393       .  S
Zr213       O215   2.435       .  S
Zr213       O237   2.439       .  S
Zr213       O239   2.416       .  S
Zr213       O217   2.392       .  S
Zr213       O220   2.394       .  S
Zr214       O240   2.435       .  S
Zr214       O241   2.437       .  S
Zr214       O216   2.438       .  S
Zr214       O217   2.384       .  S
Zr214       O218   2.380       .  S
O215        H252   0.990       .  S
O216        H247   0.991       .  S
O216        H261   0.990       .  S
O218        H244   0.968       .  S
O219       Zr229   2.380       .  S
O220       Zr229   2.377       .  S
O220        H245   0.968       .  S
C221       C3617   1.468       .  S
C222       C3725   1.477       .  S
C223       C3524   1.483       .  S
O224        H260   0.990       .  S
O225        C227   1.284       .  A
O226        C227   1.288       .  A
C227       C3542   1.479       .  S
O228       Zr229   2.437       .  S
O228        H257   0.990       .  S
Zr229       O232   2.437       .  S
Zr229       O233   2.439       .  S
Zr229       O234   2.390       .  S
O230        C235   1.287       .  A
O231        H248   0.990       .  S
O231        H263   0.990       .  S
O232        H249   0.990       .  S
O233        H253   0.990       .  S
O233        H262   0.990       .  S
O234        C235   1.276       .  A
C235       C3635   1.467       .  S
O236        H255   0.990       .  S
O236        H259   0.990       .  S
O237        H251   0.990       .  S
O237        H258   0.990       .  S
O238        C242   1.288       .  A
O239        C242   1.282       .  A
O240        H250   0.990       .  S
O241        H254   0.990       .  S
C242       C3560   1.476       .  S
Zr265       O266   2.443       .  S
Zr265       O267   2.443       .  S
Zr265       O268   2.456       .  S
Zr265       O271   2.472       .  S
Zr265       O273   2.395       .  S
Zr265       O274   2.392       .  S
Zr265       O275   2.416       .  S
Zr265       O276   2.392       .  S
O266        H322   0.990       .  S
O266        H330   0.991       .  S
O267        C287   1.285       .  A
O268        C289   1.286       .  A
O269       Zr279   2.427       .  S
O269        C288   1.284       .  A
O270       Zr278   2.436       .  S
O270        C289   1.285       .  A
O271        C288   1.290       .  A
O272       Zr280   2.409       .  S
O272        C287   1.279       .  A
O273       Zr278   2.398       .  S
O273       Zr280   2.381       .  S
O274       Zr279   2.394       .  S
O274       Zr280   2.383       .  S
O274        H309   0.963       .  S
O275       Zr278   2.401       .  S
O275       Zr295   2.375       .  S
O275        H312   0.961       .  S
O276       Zr279   2.389       .  S
O276       Zr295   2.383       .  S
Zr277       O302   2.444       .  S
Zr277       O296   2.452       .  S
Zr277       O304   2.452       .  S
Zr277       O292   2.449       .  S
Zr277       O283   2.404       .  S
Zr277       O284   2.418       .  S
Zr277       O285   2.390       .  S
Zr277       O286   2.387       .  S
Zr278       O297   2.435       .  S
Zr278       O290   2.438       .  S
Zr278       O291   2.434       .  S
Zr278       O284   2.396       .  S
Zr278       O285   2.395       .  S
Zr279       O281   2.434       .  S
Zr279       O303   2.434       .  S
Zr279       O305   2.436       .  S
Zr279       O283   2.390       .  S
Zr279       O286   2.389       .  S
Zr280       O306   2.436       .  S
Zr280       O307   2.436       .  S
Zr280       O282   2.437       .  S
Zr280       O283   2.388       .  S
Zr280       O284   2.387       .  S
O281        H318   0.990       .  S
O282        H313   0.990       .  S
O282        H327   0.990       .  S
O284        H310   0.969       .  S
O285       Zr295   2.383       .  S
O286       Zr295   2.384       .  S
O286        H311   0.968       .  S
C287       C3491   1.470       .  S
C288       C3506   1.484       .  S
C289       C3452   1.478       .  S
O290        H326   0.990       .  S
O291        C293   1.285       .  A
O292        C293   1.285       .  A
C293       C3434   1.477       .  S
O294       Zr295   2.436       .  S
O294        H323   0.990       .  S
Zr295       O298   2.439       .  S
Zr295       O299   2.435       .  S
Zr295       O300   2.391       .  S
O296        C301   1.285       .  A
O297        H314   0.990       .  S
O297        H329   0.990       .  S
O298        H315   0.990       .  S
O299        H319   0.990       .  S
O299        H328   0.990       .  S
O300        C301   1.277       .  A
C301       C3470   1.466       .  S
O302        H321   0.991       .  S
O302        H325   0.990       .  S
O303        H317   0.990       .  S
O303        H324   0.990       .  S
O304        C308   1.286       .  A
O305        C308   1.284       .  A
O306        H316   0.990       .  S
O307        H320   0.990       .  S
C308       C3563   1.474       .  S
Zr331       O332   2.441   1_556  S
Zr331       O333   2.443   1_556  S
Zr331       O334   2.466       .  S
Zr331       O337   2.444       .  S
Zr331       O339   2.381       .  S
Zr331       O340   2.395       .  S
Zr331       O341   2.407       .  S
Zr331       O342   2.401       .  S
O332        H388   0.990       .  S
O332        H396   0.991   1_554  S
O333        C353   1.284       .  A
O334        C355   1.288       .  A
O335       Zr345   2.432       .  S
O335        C354   1.284       .  A
O336       Zr344   2.427       .  S
O336        C355   1.284       .  A
O337        C354   1.286       .  A
O338       Zr346   2.402   1_554  S
O338        C353   1.278       .  A
O339       Zr344   2.395       .  S
O339       Zr346   2.383       .  S
O340       Zr345   2.396       .  S
O340       Zr346   2.377       .  S
O340        H375   0.957   1_556  S
O341       Zr344   2.399       .  S
O341       Zr361   2.379       .  S
O341        H378   0.962       .  S
O342       Zr345   2.392       .  S
O342       Zr361   2.377       .  S
Zr343       O368   2.443       .  S
Zr343       O362   2.458       .  S
Zr343       O370   2.465       .  S
Zr343       O358   2.473       .  S
Zr343       O349   2.408       .  S
Zr343       O350   2.411       .  S
Zr343       O351   2.383       .  S
Zr343       O352   2.394       .  S
Zr344       O363   2.436       .  S
Zr344       O356   2.436       .  S
Zr344       O357   2.419       .  S
Zr344       O350   2.399       .  S
Zr344       O351   2.391       .  S
Zr345       O347   2.437       .  S
Zr345       O369   2.437       .  S
Zr345       O371   2.432       .  S
Zr345       O349   2.395       .  S
Zr345       O352   2.397       .  S
Zr346       O372   2.437   1_556  S
Zr346       O373   2.437       .  S
Zr346       O348   2.437   1_556  S
Zr346       O349   2.390       .  S
Zr346       O350   2.387       .  S
O347        H384   0.989       .  S
O348        H379   0.990       .  S
O348        H393   0.990       .  S
O350        H376   0.967       .  S
O351       Zr361   2.382       .  S
O352       Zr361   2.385       .  S
O352        H377   0.965       .  S
C353       C3488   1.469       .  S
C354       C3653   1.475       .  S
C355       C3380   1.480       .  S
O356        H392   0.990       .  S
O357        C359   1.282       .  A
O358        C359   1.291       .  A
C359       C3401   1.482       .  S
O360       Zr361   2.439       .  S
O360        H389   0.990       .  S
Zr361       O364   2.439       .  S
Zr361       O365   2.438       .  S
Zr361       O366   2.381       .  S
O362        C367   1.287       .  A
O363        H380   0.990       .  S
O363        H395   0.990       .  S
O364        H381   0.990       .  S
O365        H385   0.989       .  S
O365        H394   0.990       .  S
O366        C367   1.274       .  A
C367       C3473   1.466       .  S
O368        H387   0.991       .  S
O368        H391   0.991       .  S
O369        H383   0.990       .  S
O369        H390   0.990       .  S
O370        C374   1.288       .  A
O371        C374   1.284       .  A
O372        H382   0.990   1_554  S
O373        H386   0.990       .  S
C374       C3416   1.483       .  S
Zr397       O398   2.442       .  S
Zr397       O399   2.451       .  S
Zr397       O400   2.468       .  S
Zr397       O403   2.466       .  S
Zr397       O405   2.391       .  S
Zr397       O406   2.396       .  S
Zr397       O407   2.412       .  S
Zr397       O408   2.403       .  S
O398        H454   0.990       .  S
O398        H462   0.991       .  S
O399        C419   1.286       .  A
O400        C421   1.289       .  A
O401       Zr411   2.444       .  S
O401        C420   1.287       .  A
O402       Zr410   2.427       .  S
O402        C421   1.283       .  A
O403        C420   1.290       .  A
O404       Zr412   2.396       .  S
O404        C419   1.277       .  A
O405       Zr410   2.399       .  S
O405       Zr412   2.382       .  S
O406       Zr411   2.394       .  S
O406       Zr412   2.387       .  S
O406        H441   0.965       .  S
O407       Zr410   2.402       .  S
O407       Zr427   2.383       .  S
O407        H444   0.960       .  S
O408       Zr411   2.390       .  S
O408       Zr427   2.383       .  S
Zr409       O434   2.443       .  S
Zr409       O428   2.454       .  S
Zr409       O436   2.444       .  S
Zr409       O424   2.473       .  S
Zr409       O415   2.411       .  S
Zr409       O416   2.410       .  S
Zr409       O417   2.382       .  S
Zr409       O418   2.394       .  S
Zr410       O429   2.436       .  S
Zr410       O422   2.436       .  S
Zr410       O423   2.430       .  S
Zr410       O416   2.401       .  S
Zr410       O417   2.395       .  S
Zr411       O413   2.435       .  S
Zr411       O435   2.437       .  S
Zr411       O437   2.440       .  S
Zr411       O415   2.395       .  S
Zr411       O418   2.396       .  S
Zr412       O438   2.437       .  S
Zr412       O439   2.435       .  S
Zr412       O414   2.440       .  S
Zr412       O415   2.387       .  S
Zr412       O416   2.390       .  S
O413        H450   0.989       .  S
O414        H445   0.990       .  S
O414        H459   0.990       .  S
O416        H442   0.967       .  S
O417       Zr427   2.383       .  S
O418       Zr427   2.378       .  S
O418        H443   0.967       .  S
C419       C3344   1.469       .  S
C420       C3509   1.491       .  S
C421       C3329   1.482       .  S
O422        H458   0.990       .  S
O423        C425   1.284       .  A
O424        C425   1.289       .  A
C425       C3308   1.487       .  S
O426       Zr427   2.437       .  S
O426        H455   0.990       .  S
Zr427       O430   2.436       .  S
Zr427       O431   2.438       .  S
Zr427       O432   2.391       .  S
O428        C433   1.286       .  A
O429        H446   0.990       .  S
O429        H461   0.990       .  S
O430        H447   0.990       .  S
O431        H451   0.990       .  S
O431        H460   0.990       .  S
O432        C433   1.276       .  A
C433       C3362   1.469       .  S
O434        H453   0.991       .  S
O434        H457   0.990       .  S
O435        H449   0.990       .  S
O435        H456   0.991       .  S
O436        C440   1.285       .  A
O437        C440   1.286       .  A
O438        H448   0.990       .  S
O439        H452   0.990       .  S
C440       C3812   1.477       .  S
Zr463       O464   2.442       .  S
Zr463       O465   2.449       .  S
Zr463       O466   2.476       .  S
Zr463       O469   2.469       .  S
Zr463       O471   2.386       .  S
Zr463       O472   2.395       .  S
Zr463       O473   2.415       .  S
Zr463       O474   2.403       .  S
O464        H520   0.990       .  S
O464        H528   0.991       .  S
O465        C485   1.285       .  A
O466        C487   1.290       .  A
O467       Zr477   2.421       .  S
O467        C486   1.283       .  A
O468       Zr476   2.417       .  S
O468        C487   1.283       .  A
O469        C486   1.291       .  A
O470       Zr478   2.391       .  S
O470        C485   1.275       .  A
O471       Zr476   2.399       .  S
O471       Zr478   2.384       .  S
O472       Zr477   2.395       .  S
O472       Zr478   2.377       .  S
O472        H507   0.968       .  S
O473       Zr476   2.402       .  S
O473       Zr493   2.381       .  S
O473        H510   0.963       .  S
O474       Zr477   2.388       .  S
O474       Zr493   2.378       .  S
Zr475       O500   2.441       .  S
Zr475       O494   2.454       .  S
Zr475       O502   2.462       .  S
Zr475       O490   2.457       .  S
Zr475       O481   2.404       .  S
Zr475       O482   2.409       .  S
Zr475       O483   2.384       .  S
Zr475       O484   2.391       .  S
Zr476       O495   2.438       .  S
Zr476       O488   2.435       .  S
Zr476       O489   2.434       .  S
Zr476       O482   2.396       .  S
Zr476       O483   2.386       .  S
Zr477       O479   2.435       .  S
Zr477       O501   2.436       .  S
Zr477       O503   2.422       .  S
Zr477       O481   2.392       .  S
Zr477       O484   2.392       .  S
Zr478       O504   2.438       .  S
Zr478       O505   2.435       .  S
Zr478       O480   2.437       .  S
Zr478       O481   2.385       .  S
Zr478       O482   2.381       .  S
O479        H516   0.990       .  S
O480        H511   0.990       .  S
O480        H525   0.990       .  S
O482        H508   0.966       .  S
O483       Zr493   2.387       .  S
O484       Zr493   2.382       .  S
O484        H509   0.963       .  S
C485       C3347   1.466       .  S
C486       C3707   1.480       .  S
C487       C3275   1.480       .  S
O488        H524   0.990       .  S
O489        C491   1.284       .  A
O490        C491   1.287       .  A
C491       C3293   1.478       .  S
O492       Zr493   2.438       .  S
O492        H521   0.990       .  S
Zr493       O496   2.436       .  S
Zr493       O497   2.440       .  S
Zr493       O498   2.383       .  S
O494        C499   1.287       .  A
O495        H512   0.990       .  S
O495        H527   0.990       .  S
O496        H513   0.990       .  S
O497        H517   0.990       .  S
O497        H526   0.990       .  S
O498        C499   1.275       .  A
C499       C3365   1.465       .  S
O500        H519   0.990       .  S
O500        H523   0.991       .  S
O501        H515   0.990       .  S
O501        H522   0.990       .  S
O502        C506   1.288       .  A
O503        C506   1.282       .  A
O504        H514   0.990       .  S
O505        H518   0.990       .  S
C506       C3419   1.479       .  S
Zr529       O530   2.442       .  S
Zr529       O531   2.455       .  S
Zr529       O532   2.471       .  S
Zr529       O535   2.467       .  S
Zr529       O537   2.384       .  S
Zr529       O538   2.392       .  S
Zr529       O539   2.418       .  S
Zr529       O540   2.406       .  S
O530        H586   0.990       .  S
O530        H594   0.991       .  S
O531        C551   1.286       .  A
O532        C553   1.290       .  A
O533       Zr543   2.417       .  S
O533        C552   1.283       .  A
O534       Zr542   2.429       .  S
O534        C553   1.283       .  A
O535        C552   1.290       .  A
O536       Zr544   2.385       .  S
O536        C551   1.276       .  A
O537       Zr542   2.393       .  S
O537       Zr544   2.383       .  S
O538       Zr543   2.392       .  S
O538       Zr544   2.380       .  S
O538        H573   0.967       .  S
O539       Zr542   2.404       .  S
O539       Zr559   2.391       .  S
O539        H576   0.964       .  S
O540       Zr543   2.386       .  S
O540       Zr559   2.386       .  S
Zr541       O566   2.440   1_554  S
Zr541       O560   2.453   1_554  S
Zr541       O568   2.462       .  S
Zr541       O556   2.469       .  S
Zr541       O547   2.406       .  S
Zr541       O548   2.417       .  S
Zr541       O549   2.385       .  S
Zr541       O550   2.387       .  S
Zr542       O561   2.434       .  S
Zr542       O554   2.435       .  S
Zr542       O555   2.432       .  S
Zr542       O548   2.401       .  S
Zr542       O549   2.394       .  S
Zr543       O545   2.435       .  S
Zr543       O567   2.439       .  S
Zr543       O569   2.412       .  S
Zr543       O547   2.391       .  S
Zr543       O550   2.387       .  S
Zr544       O570   2.435       .  S
Zr544       O571   2.438       .  S
Zr544       O546   2.442       .  S
Zr544       O547   2.388       .  S
Zr544       O548   2.376       .  S
O545        H582   0.990       .  S
O546        H577   0.990       .  S
O546        H591   0.990       .  S
O548        H574   0.961       .  S
O549       Zr559   2.383       .  S
O550       Zr559   2.376       .  S
O550        H575   0.966   1_554  S
C551       C3218   1.466       .  S
C552       C3182   1.483       .  S
C553       C3254   1.483       .  S
O554        H590   0.990       .  S
O555        C557   1.284       .  A
O556        C557   1.290       .  A
C557       C3239   1.480       .  S
O558       Zr559   2.438       .  S
O558        H587   0.990   1_554  S
Zr559       O562   2.437   1_554  S
Zr559       O563   2.440   1_554  S
Zr559       O564   2.395   1_554  S
O560        C565   1.286       .  A
O561        H578   0.990       .  S
O561        H593   0.990       .  S
O562        H579   0.990       .  S
O563        H583   0.990       .  S
O563        H592   0.990   1_556  S
O564        C565   1.276       .  A
C565       C3203   1.470       .  S
O566        H585   0.991   1_556  S
O566        H589   0.990       .  S
O567        H581   0.990       .  S
O567        H588   0.989       .  S
O568        C572   1.288       .  A
O569        C572   1.281       .  A
O570        H580   0.990       .  S
O571        H584   0.990       .  S
C572       C3599   1.479       .  S
Zr595       O596   2.442       .  S
Zr595       O597   2.453       .  S
Zr595       O598   2.463       .  S
Zr595       O601   2.467       .  S
Zr595       O603   2.387       .  S
Zr595       O604   2.392       .  S
Zr595       O605   2.414       .  S
Zr595       O606   2.401       .  S
O596        H652   0.990       .  S
O596        H660   0.991       .  S
O597        C617   1.285       .  A
O598        C619   1.289       .  A
O599       Zr609   2.417       .  S
O599        C618   1.282       .  A
O600       Zr608   2.431       .  S
O600        C619   1.283       .  A
O601        C618   1.290       .  A
O602       Zr610   2.371       .  S
O602        C617   1.272       .  A
O603       Zr608   2.395       .  S
O603       Zr610   2.382       .  S
O604       Zr609   2.389       .  S
O604       Zr610   2.379       .  S
O604        H639   0.961       .  S
O605       Zr608   2.400       .  S
O605       Zr625   2.383       .  S
O605        H642   0.962       .  S
O606       Zr609   2.385       .  S
O606       Zr625   2.386       .  S
Zr607       O632   2.442       .  S
Zr607       O626   2.461       .  S
Zr607       O634   2.478       .  S
Zr607       O622   2.467       .  S
Zr607       O613   2.407       .  S
Zr607       O614   2.423       .  S
Zr607       O615   2.391       .  S
Zr607       O616   2.386       .  S
Zr608       O627   2.436       .  S
Zr608       O620   2.436       .  S
Zr608       O621   2.422       .  S
Zr608       O614   2.408       .  S
Zr608       O615   2.396       .  S
Zr609       O611   2.435       .  S
Zr609       O633   2.437       .  S
Zr609       O635   2.404       .  S
Zr609       O613   2.392       .  S
Zr609       O616   2.388       .  S
Zr610       O636   2.434       .  S
Zr610       O637   2.435       .  S
Zr610       O612   2.442       .  S
Zr610       O613   2.388       .  S
Zr610       O614   2.376       .  S
O611        H648   0.990       .  S
O612        H643   0.991       .  S
O612        H657   0.989       .  S
O614        H640   0.961       .  S
O615       Zr625   2.382       .  S
O616       Zr625   2.379       .  S
O616        H641   0.966       .  S
C617       C3221   1.461       .  S
C618       C3545   1.481       .  S
C619       C3146   1.478       .  S
O620        H656   0.990       .  S
O621        C623   1.283       .  A
O622        C623   1.289       .  A
C623       C3164   1.473       .  S
O624       Zr625   2.438       .  S
O624        H653   0.990       .  S
Zr625       O628   2.439       .  S
Zr625       O629   2.439       .  S
Zr625       O630   2.396       .  S
O626        C631   1.288       .  A
O627        H644   0.990       .  S
O627        H659   0.990       .  S
O628        H645   0.990       .  S
O629        H649   0.990       .  S
O629        H658   0.990       .  S
O630        C631   1.277       .  A
C631       C3200   1.473       .  S
O632        H651   0.991       .  S
O632        H655   0.989       .  S
O633        H647   0.989       .  S
O633        H654   0.991       .  S
O634        C638   1.292       .  A
O635        C638   1.279       .  A
O636        H646   0.989       .  S
O637        H650   0.990       .  S
C638       C3128   1.482       .  S
Zr661       O662   2.440       .  S
Zr661       O663   2.442       .  S
Zr661       O664   2.469       .  S
Zr661       O667   2.470       .  S
Zr661       O669   2.388       .  S
Zr661       O670   2.396       .  S
Zr661       O671   2.416       .  S
Zr661       O672   2.402       .  S
O662        H718   0.990       .  S
O662        H726   0.991       .  S
O663        C683   1.284       .  A
O664        C685   1.289       .  A
O665       Zr675   2.422       .  S
O665        C684   1.283       .  A
O666       Zr674   2.434       .  S
O666        C685   1.285       .  A
O667        C684   1.291       .  A
O668       Zr676   2.386       .  S
O668        C683   1.274       .  A
O669       Zr674   2.395       .  S
O669       Zr676   2.383       .  S
O670       Zr675   2.390       .  S
O670       Zr676   2.376       .  S
O670        H705   0.966       .  S
O671       Zr674   2.403       .  S
O671       Zr691   2.379       .  S
O671        H708   0.964       .  S
O672       Zr675   2.390       .  S
O672       Zr691   2.377       .  S
Zr673       O698   2.443       .  S
Zr673       O692   2.458       .  S
Zr673       O700   2.457       .  S
Zr673       O688   2.477       .  S
Zr673       O679   2.413       .  S
Zr673       O680   2.413       .  S
Zr673       O681   2.384       .  S
Zr673       O682   2.391       .  S
Zr674       O693   2.436       .  S
Zr674       O686   2.435       .  S
Zr674       O687   2.432       .  S
Zr674       O680   2.400       .  S
Zr674       O681   2.395       .  S
Zr675       O677   2.434       .  S
Zr675       O699   2.441       .  S
Zr675       O701   2.417       .  S
Zr675       O679   2.392       .  S
Zr675       O682   2.398       .  S
Zr676       O702   2.436       .  S
Zr676       O703   2.436       .  S
Zr676       O678   2.438       .  S
Zr676       O679   2.390       .  S
Zr676       O680   2.373       .  S
O677        H714   0.991       .  S
O678        H709   0.990       .  S
O678        H723   0.990       .  S
O680        H706   0.963       .  S
O681       Zr691   2.386       .  S
O682       Zr691   2.378       .  S
O682        H707   0.968       .  S
C683       C3095   1.462       .  S
C684       C3758   1.483       .  S
C685       C3110   1.481       .  S
O686        H722   0.990       .  S
O687        C689   1.285       .  A
O688        C689   1.291       .  A
C689       C3257   1.481       .  S
O690       Zr691   2.437       .  S
O690        H719   0.990       .  S
Zr691       O694   2.435       .  S
Zr691       O695   2.440       .  S
Zr691       O696   2.383       .  S
O692        C697   1.286       .  A
O693        H710   0.990       .  S
O693        H725   0.990       .  S
O694        H711   0.989       .  S
O695        H715   0.990       .  S
O695        H724   0.990       .  S
O696        C697   1.274       .  A
C697       C3074   1.469       .  S
O698        H717   0.990       .  S
O698        H721   0.990       .  S
O699        H713   0.990       .  S
O699        H720   0.990       .  S
O700        C704   1.288       .  A
O701        C704   1.281       .  A
O702        H712   0.990       .  S
O703        H716   0.990       .  S
C704       C3056   1.476       .  S
Zr727       O728   2.443       .  S
Zr727       O729   2.459       .  S
Zr727       O730   2.459       .  S
Zr727       O733   2.462       .  S
Zr727       O735   2.389       .  S
Zr727       O736   2.389       .  S
Zr727       O737   2.417       .  S
Zr727       O738   2.403       .  S
O728        H784   0.990       .  S
O728        H792   0.991       .  S
O729        C749   1.288       .  A
O730        C751   1.287       .  A
O731       Zr741   2.410       .  S
O731        C750   1.281       .  A
O732       Zr740   2.434       .  S
O732        C751   1.285       .  A
O733        C750   1.289       .  A
O734       Zr742   2.396       .  S
O734        C749   1.276       .  A
O735       Zr740   2.398       .  S
O735       Zr742   2.382       .  S
O736       Zr741   2.394       .  S
O736       Zr742   2.378       .  S
O736        H771   0.951       .  S
O737       Zr740   2.398       .  S
O737       Zr757   2.378       .  S
O737        H774   0.966       .  S
O738       Zr741   2.384       .  S
O738       Zr757   2.384       .  S
Zr739       O764   2.442       .  S
Zr739       O758   2.453       .  S
Zr739       O766   2.470       .  S
Zr739       O754   2.455       .  S
Zr739       O745   2.399       .  S
Zr739       O746   2.417       .  S
Zr739       O747   2.387       .  S
Zr739       O748   2.389       .  S
Zr740       O759   2.436       .  S
Zr740       O752   2.435       .  S
Zr740       O753   2.432       .  S
Zr740       O746   2.401       .  S
Zr740       O747   2.392       .  S
Zr741       O743   2.436       .  S
Zr741       O765   2.437       .  S
Zr741       O767   2.414       .  S
Zr741       O745   2.388       .  S
Zr741       O748   2.389       .  S
Zr742       O768   2.433       .  S
Zr742       O769   2.435       .  S
Zr742       O744   2.438       .  S
Zr742       O745   2.385       .  S
Zr742       O746   2.383       .  S
O743        H780   0.990       .  S
O744        H775   0.990       .  S
O744        H789   0.990       .  S
O746        H772   0.967       .  S
O747       Zr757   2.382       .  S
O748       Zr757   2.383       .  S
O748        H773   0.968       .  S
C749       C3077   1.473       .  S
C750       C3689   1.478       .  S
C751       C3038   1.477       .  S
O752        H788   0.990       .  S
O753        C755   1.284       .  A
O754        C755   1.287       .  A
C755       C3167   1.474       .  S
O756       Zr757   2.439       .  S
O756        H785   0.990       .  S
Zr757       O760   2.438       .  S
Zr757       O761   2.437       .  S
Zr757       O762   2.396       .  S
O758        C763   1.286       .  A
O759        H776   0.990       .  S
O759        H791   0.990       .  S
O760        H777   0.990       .  S
O761        H781   0.990       .  S
O761        H790   0.990       .  S
O762        C763   1.277       .  A
C763       C3092   1.469       .  S
O764        H783   0.991       .  S
O764        H787   0.990       .  S
O765        H779   0.990       .  S
O765        H786   0.990       .  S
O766        C770   1.290       .  A
O767        C770   1.281       .  A
O768        H778   0.990       .  S
O769        H782   0.990       .  S
C770       C3020   1.481       .  S
Zr793       O794   2.444       .  S
Zr793       O795   2.436       .  S
Zr793       O796   2.452       .  S
Zr793       O799   2.459       .  S
Zr793       O801   2.388       .  S
Zr793       O802   2.386       .  S
Zr793       O803   2.415       .  S
Zr793       O804   2.403       .  S
O794        H850   0.990       .  S
O794        H858   0.990       .  S
O795        C815   1.282       .  A
O796        C817   1.286       .  A
O797       Zr807   2.415       .  S
O797        C816   1.281       .  A
O798       Zr806   2.428       .  S
O798        C817   1.283       .  A
O799        C816   1.288       .  A
O800       Zr808   2.400       .  S
O800        C815   1.276       .  A
O801       Zr806   2.400       .  S
O801       Zr808   2.380       .  S
O802       Zr807   2.392       .  S
O802       Zr808   2.377       .  S
O802        H837   0.965       .  S
O803       Zr806   2.406       .  S
O803       Zr823   2.378       .  S
O803        H840   0.962       .  S
O804       Zr807   2.396       .  S
O804       Zr823   2.393       .  S
Zr805       O830   2.441       .  S
Zr805       O824   2.440       .  S
Zr805       O832   2.461       .  S
Zr805       O820   2.459       .  S
Zr805       O811   2.403       .  S
Zr805       O812   2.410       .  S
Zr805       O813   2.386       .  S
Zr805       O814   2.383       .  S
Zr806       O825   2.437       .  S
Zr806       O818   2.436       .  S
Zr806       O819   2.437       .  S
Zr806       O812   2.404       .  S
Zr806       O813   2.397       .  S
Zr807       O809   2.435       .  S
Zr807       O831   2.435       .  S
Zr807       O833   2.423       .  S
Zr807       O811   2.395       .  S
Zr807       O814   2.390       .  S
Zr808       O834   2.435       .  S
Zr808       O835   2.434       .  S
Zr808       O810   2.442       .  S
Zr808       O811   2.396       .  S
Zr808       O812   2.379       .  S
O809        H846   0.990       .  S
O810        H841   0.990       .  S
O810        H855   0.990       .  S
O812        H838   0.965       .  S
O813       Zr823   2.383       .  S
O814       Zr823   2.380       .  S
O814        H839   0.964       .  S
C815       C2966   1.465       .  S
C816       C2951   1.478       .  S
C817       C3002   1.468       .  S
O818        H854   0.990       .  S
O819        C821   1.285       .  A
O820        C821   1.287       .  A
C821       C3113   1.477       .  S
O822       Zr823   2.441       .  S
O822        H851   0.991       .  S
Zr823       O826   2.440       .  S
Zr823       O827   2.438       .  S
Zr823       O828   2.400       .  S
O824        C829   1.283       .  A
O825        H842   0.990       .  S
O825        H857   0.990       .  S
O826        H843   0.990       .  S
O827        H847   0.990       .  S
O827        H856   0.990       .  S
O828        C829   1.278       .  A
C829       C2987   1.467       .  S
O830        H849   0.990       .  S
O830        H853   0.991       .  S
O831        H845   0.990       .  S
O831        H852   0.990       .  S
O832        C836   1.289       .  A
O833        C836   1.282       .  A
O834        H844   0.990       .  S
O835        H848   0.990       .  S
C836       C3311   1.484       .  S
Zr859       O860   2.441       .  S
Zr859       O861   2.437       .  S
Zr859       O862   2.455       .  S
Zr859       O865   2.461       .  S
Zr859       O867   2.394       .  S
Zr859       O868   2.389       .  S
Zr859       O869   2.417       .  S
Zr859       O870   2.400       .  S
O860        H916   0.990       .  S
O860        H924   0.991       .  S
O861        C881   1.283       .  A
O862        C883   1.287       .  A
O863       Zr873   2.411       .  S
O863        C882   1.280       .  A
O864       Zr872   2.433       .  S
O864        C883   1.284       .  A
O865        C882   1.288       .  A
O866       Zr874   2.395       .  S
O866        C881   1.276       .  A
O867       Zr872   2.396       .  S
O867       Zr874   2.386       .  S
O868       Zr873   2.384       .  S
O868       Zr874   2.380       .  S
O868        H903   0.959       .  S
O869       Zr872   2.402       .  S
O869       Zr889   2.381       .  S
O869        H906   0.959       .  S
O870       Zr873   2.385       .  S
O870       Zr889   2.390       .  S
Zr871       O896   2.441       .  S
Zr871       O890   2.455       .  S
Zr871       O898   2.472       .  S
Zr871       O886   2.474       .  S
Zr871       O877   2.403       .  S
Zr871       O878   2.415       .  S
Zr871       O879   2.390       .  S
Zr871       O880   2.395       .  S
Zr872       O891   2.436       .  S
Zr872       O884   2.437       .  S
Zr872       O885   2.423       .  S
Zr872       O878   2.402       .  S
Zr872       O879   2.398       .  S
Zr873       O875   2.434       .  S
Zr873       O897   2.436       .  S
Zr873       O899   2.409       .  S
Zr873       O877   2.389       .  S
Zr873       O880   2.391       .  S
Zr874       O900   2.439       .  S
Zr874       O901   2.437       .  S
Zr874       O876   2.439       .  S
Zr874       O877   2.383       .  S
Zr874       O878   2.381       .  S
O875        H912   0.990       .  S
O876        H907   0.990       .  S
O876        H921   0.989       .  S
O878        H904   0.962       .  S
O879       Zr889   2.381       .  S
O880       Zr889   2.380       .  S
O880        H905   0.967       .  S
C881       C2969   1.462       .  S
C882       C3272   1.479       .  S
C883       C3041   1.474       .  S
O884        H920   0.990       .  S
O885        C887   1.282       .  A
O886        C887   1.290       .  A
C887       C2930   1.481       .  S
O888       Zr889   2.439       .  S
O888        H917   0.990       .  S
Zr889       O892   2.438       .  S
Zr889       O893   2.439       .  S
Zr889       O894   2.403       .  S
O890        C895   1.288       .  A
O891        H908   0.990       .  S
O891        H923   0.990       .  S
O892        H909   0.990       .  S
O893        H913   0.990       .  S
O893        H922   0.989       .  S
O894        C895   1.278       .  A
C895       C2984   1.472       .  S
O896        H915   0.992       .  S
O896        H919   0.989       .  S
O897        H911   0.990       .  S
O897        H918   0.990       .  S
O898        C902   1.291       .  A
O899        C902   1.281       .  A
O900        H910   0.990       .  S
O901        H914   0.990       .  S
C902       C2912   1.482       .  S
Zr925       O926   2.442       .  S
Zr925       O927   2.445       .  S
Zr925       O928   2.464       .  S
Zr925       O931   2.460       .  S
Zr925       O933   2.389       .  S
Zr925       O934   2.391       .  S
Zr925       O935   2.415       .  S
Zr925       O936   2.404       .  S
O926        H982   0.990       .  S
O926        H990   0.991       .  S
O927        C947   1.284       .  A
O928        C949   1.289       .  A
O929       Zr939   2.415       .  S
O929        C948   1.282       .  A
O930       Zr938   2.426       .  S
O930        C949   1.282       .  A
O931        C948   1.288       .  A
O932       Zr940   2.387       .  S
O932        C947   1.275       .  A
O933       Zr938   2.396       .  S
O933       Zr940   2.383       .  S
O934       Zr939   2.388       .  S
O934       Zr940   2.374       .  S
O934        H969   0.965       .  S
O935       Zr938   2.403       .  S
O935       Zr955   2.385       .  S
O935        H972   0.965       .  S
O936       Zr939   2.390       .  S
O936       Zr955   2.383       .  S
Zr937       O962   2.441       .  S
Zr937       O956   2.452       .  S
Zr937       O964   2.459       .  S
Zr937       O952   2.454       .  S
Zr937       O943   2.404       .  S
Zr937       O944   2.417       .  S
Zr937       O945   2.390       .  S
Zr937       O946   2.388       .  S
Zr938       O957   2.439       .  S
Zr938       O950   2.436       .  S
Zr938       O951   2.428       .  S
Zr938       O944   2.403       .  S
Zr938       O945   2.396       .  S
Zr939       O941   2.435       .  S
Zr939       O963   2.436       .  S
Zr939       O965   2.418       .  S
Zr939       O943   2.384       .  S
Zr939       O946   2.391       .  S
Zr940       O966   2.435       .  S
Zr940       O967   2.434       .  S
Zr940       O942   2.436       .  S
Zr940       O943   2.387       .  S
Zr940       O944   2.381       .  S
O941        H978   0.990       .  S
O942        H973   0.990       .  S
O942        H987   0.990       .  S
O944        H970   0.966       .  S
O945       Zr955   2.385       .  S
O946       Zr955   2.381       .  S
O946        H971   0.965       .  S
C947       C2876   1.464       .  S
C948       C3437   1.477       .  S
C949       C3149   1.478       .  S
O950        H986   0.990       .  S
O951        C953   1.284       .  A
O952        C953   1.286       .  A
C953       C3005   1.474       .  S
O954       Zr955   2.439       .  S
O954        H983   0.990       .  S
Zr955       O958   2.438       .  S
Zr955       O959   2.440       .  S
Zr955       O960   2.394       .  S
O956        C961   1.286       .  A
O957        H974   0.991       .  S
O957        H989   0.990       .  S
O958        H975   0.990       .  S
O959        H979   0.990       .  S
O959        H988   0.990       .  S
O960        C961   1.276       .  A
C961       C2894   1.468       .  S
O962        H981   0.991       .  S
O962        H985   0.990       .  S
O963        H977   0.990       .  S
O963        H984   0.990       .  S
O964        C968   1.288       .  A
O965        C968   1.282       .  A
O966        H976   0.990       .  S
O967        H980   0.990       .  S
C968       C2861   1.482       .  S
Zr991       O992   2.442   1_556  S
Zr991       O993   2.455   1_556  S
Zr991       O994   2.462       .  S
Zr991       O997   2.460       .  S
Zr991       O999   2.385       .  S
Zr991      O1000   2.388       .  S
Zr991      O1001   2.413       .  S
Zr991      O1002   2.407       .  S
O992       H1048   0.990       .  S
O992       H1056   0.991   1_554  S
O993       C1013   1.286       .  A
O994       C1015   1.289       .  A
O995      Zr1005   2.406       .  S
O995       C1014   1.280       .  A
O996      Zr1004   2.444       .  S
O996       C1015   1.286       .  A
O997       C1014   1.288       .  A
O998      Zr1006   2.386   1_554  S
O998       C1013   1.274       .  A
O999      Zr1004   2.398       .  S
O999      Zr1006   2.387       .  S
O1000     Zr1005   2.388       .  S
O1000     Zr1006   2.375       .  S
O1000      H1035   0.965   1_556  S
O1001     Zr1004   2.400       .  S
O1001     Zr1021   2.381       .  S
O1001      H1038   0.963       .  S
O1002     Zr1005   2.392       .  S
O1002     Zr1021   2.391       .  S
Zr1003     O1028   2.443       .  S
Zr1003     O1022   2.457       .  S
Zr1003     O1030   2.474       .  S
Zr1003     O1018   2.468       .  S
Zr1003     O1009   2.404       .  S
Zr1003     O1010   2.418       .  S
Zr1003     O1011   2.387       .  S
Zr1003     O1012   2.388       .  S
Zr1004     O1023   2.435       .  S
Zr1004     O1016   2.434       .  S
Zr1004     O1017   2.431       .  S
Zr1004     O1010   2.409       .  S
Zr1004     O1011   2.399       .  S
Zr1005     O1007   2.435       .  S
Zr1005     O1029   2.436       .  S
Zr1005     O1031   2.415       .  S
Zr1005     O1009   2.387       .  S
Zr1005     O1012   2.389       .  S
Zr1006     O1032   2.437   1_556  S
Zr1006     O1033   2.435       .  S
Zr1006     O1008   2.437   1_556  S
Zr1006     O1009   2.386       .  S
Zr1006     O1010   2.379       .  S
O1007      H1044   0.990       .  S
O1008      H1039   0.990       .  S
O1008      H1053   0.990       .  S
O1010      H1036   0.963       .  S
O1011     Zr1021   2.381       .  S
O1012     Zr1021   2.379       .  S
O1012      H1037   0.966       .  S
C1013      C2897   1.468       .  S
C1014      C3383   1.475       .  S
C1015      C3236   1.483       .  S
O1016      H1052   0.990       .  S
O1017      C1019   1.284       .  A
O1018      C1019   1.289       .  A
C1019      C2933   1.477       .  S
O1020     Zr1021   2.438       .  S
O1020      H1049   0.991       .  S
Zr1021     O1024   2.438       .  S
Zr1021     O1025   2.439       .  S
Zr1021     O1026   2.391       .  S
O1022      C1027   1.287       .  A
O1023      H1040   0.990       .  S
O1023      H1055   0.990       .  S
O1024      H1041   0.990       .  S
O1025      H1045   0.990       .  S
O1025      H1054   0.990       .  S
O1026      C1027   1.275       .  A
C1027      C2879   1.468       .  S
O1028      H1047   0.991       .  S
O1028      H1051   0.990       .  S
O1029      H1043   0.990       .  S
O1029      H1050   0.990       .  S
O1030      C1034   1.291       .  A
O1031      C1034   1.282       .  A
O1032      H1042   0.990       .  S
O1033      H1046   0.990       .  S
C1034      C2840   1.484       .  S
Zr1057     O1058   2.443       .  S
Zr1057     O1059   2.454       .  S
Zr1057     O1060   2.474       .  S
Zr1057     O1063   2.477       .  S
Zr1057     O1065   2.390       .  S
Zr1057     O1066   2.395       .  S
Zr1057     O1067   2.416       .  S
Zr1057     O1068   2.407       .  S
O1058      H1114   0.990       .  S
O1058      H1122   0.990       .  S
O1059      C1079   1.285       .  A
O1060      C1081   1.290       .  A
O1061     Zr1071   2.412       .  S
O1061      C1080   1.281       .  A
O1062     Zr1070   2.429       .  S
O1062      C1081   1.283       .  A
O1063      C1080   1.292       .  A
O1064     Zr1072   2.399       .  S
O1064      C1079   1.277       .  A
O1065     Zr1070   2.399       .  S
O1065     Zr1072   2.388       .  S
O1066     Zr1071   2.398       .  S
O1066     Zr1072   2.378       .  S
O1066      H1101   0.966       .  S
O1067     Zr1070   2.403       .  S
O1067     Zr1087   2.375       .  S
O1067      H1104   0.964       .  S
O1068     Zr1071   2.394       .  S
O1068     Zr1087   2.390       .  S
Zr1069     O1094   2.442       .  S
Zr1069     O1088   2.449       .  S
Zr1069     O1096   2.459       .  S
Zr1069     O1084   2.461       .  S
Zr1069     O1075   2.402       .  S
Zr1069     O1076   2.412       .  S
Zr1069     O1077   2.388       .  S
Zr1069     O1078   2.390       .  S
Zr1070     O1089   2.438       .  S
Zr1070     O1082   2.438       .  S
Zr1070     O1083   2.421       .  S
Zr1070     O1076   2.400       .  S
Zr1070     O1077   2.400       .  S
Zr1071     O1073   2.435       .  S
Zr1071     O1095   2.438       .  S
Zr1071     O1097   2.430       .  S
Zr1071     O1075   2.386       .  S
Zr1071     O1078   2.386       .  S
Zr1072     O1098   2.435       .  S
Zr1072     O1099   2.435       .  S
Zr1072     O1074   2.438       .  S
Zr1072     O1075   2.386       .  S
Zr1072     O1076   2.381       .  S
O1073      H1110   0.990       .  S
O1074      H1105   0.990       .  S
O1074      H1119   0.990       .  S
O1076      H1102   0.962       .  S
O1077     Zr1087   2.383       .  S
O1078     Zr1087   2.383       .  S
O1078      H1103   0.966       .  S
C1079      C2786   1.472       .  S
C1080      C3455   1.482       .  S
C1081      C2807   1.479       .  S
O1082      H1118   0.989       .  S
O1083      C1085   1.281       .  A
O1084      C1085   1.288       .  A
C1085      C2822   1.474       .  S
O1086     Zr1087   2.440       .  S
O1086      H1115   0.991       .  S
Zr1087     O1090   2.437       .  S
Zr1087     O1091   2.440       .  S
Zr1087     O1092   2.390       .  S
O1088      C1093   1.285       .  A
O1089      H1106   0.990       .  S
O1089      H1121   0.991       .  S
O1090      H1107   0.990       .  S
O1091      H1111   0.990       .  S
O1091      H1120   0.990       .  S
O1092      C1093   1.276       .  A
C1093      C2771   1.465       .  S
O1094      H1113   0.991       .  S
O1094      H1117   0.990       .  S
O1095      H1109   0.990       .  S
O1095      H1116   0.990       .  S
O1096      C1100   1.288       .  A
O1097      C1100   1.284       .  A
O1098      H1108   0.990       .  S
O1099      H1112   0.990       .  S
C1100      C2750   1.483       .  S
Zr1123     O1124   2.440       .  S
Zr1123     O1125   2.445       .  S
Zr1123     O1126   2.467       .  S
Zr1123     O1129   2.469       .  S
Zr1123     O1131   2.392       .  S
Zr1123     O1132   2.390       .  S
Zr1123     O1133   2.412       .  S
Zr1123     O1134   2.397       .  S
O1124      H1180   0.990       .  S
O1124      H1188   0.991       .  S
O1125      C1145   1.284       .  A
O1126      C1147   1.290       .  A
O1127     Zr1137   2.422       .  S
O1127      C1146   1.283       .  A
O1128     Zr1136   2.433       .  S
O1128      C1147   1.284       .  A
O1129      C1146   1.290       .  A
O1130     Zr1138   2.386       .  S
O1130      C1145   1.273       .  A
O1131     Zr1136   2.401       .  S
O1131     Zr1138   2.383       .  S
O1132     Zr1137   2.391       .  S
O1132     Zr1138   2.378       .  S
O1132      H1167   0.978       .  S
O1133     Zr1136   2.399       .  S
O1133     Zr1153   2.385       .  S
O1133      H1170   0.966       .  S
O1134     Zr1137   2.386       .  S
O1134     Zr1153   2.380       .  S
Zr1135     O1160   2.443   1_556  S
Zr1135     O1154   2.456   1_556  S
Zr1135     O1162   2.474       .  S
Zr1135     O1150   2.468       .  S
Zr1135     O1141   2.406       .  S
Zr1135     O1142   2.418       .  S
Zr1135     O1143   2.390       .  S
Zr1135     O1144   2.391       .  S
Zr1136     O1155   2.438       .  S
Zr1136     O1148   2.435       .  S
Zr1136     O1149   2.432       .  S
Zr1136     O1142   2.406       .  S
Zr1136     O1143   2.393       .  S
Zr1137     O1139   2.435       .  S
Zr1137     O1161   2.441       .  S
Zr1137     O1163   2.418       .  S
Zr1137     O1141   2.392       .  S
Zr1137     O1144   2.394       .  S
Zr1138     O1164   2.438       .  S
Zr1138     O1165   2.435       .  S
Zr1138     O1140   2.444       .  S
Zr1138     O1141   2.394       .  S
Zr1138     O1142   2.379       .  S
O1139      H1176   0.990       .  S
O1140      H1171   0.990       .  S
O1140      H1185   0.989       .  S
O1142      H1168   0.964       .  S
O1143     Zr1153   2.385       .  S
O1144     Zr1153   2.385       .  S
O1144      H1169   0.965   1_556  S
C1145      C2768   1.463       .  S
C1146      C3398   1.483       .  S
C1147      C2714   1.479       .  S
O1148      H1184   0.991       .  S
O1149      C1151   1.284       .  A
O1150      C1151   1.289       .  A
C1151      C2732   1.478       .  S
O1152     Zr1153   2.440       .  S
O1152      H1181   0.990   1_556  S
Zr1153     O1156   2.439   1_556  S
Zr1153     O1157   2.439   1_556  S
Zr1153     O1158   2.391   1_556  S
O1154      C1159   1.287       .  A
O1155      H1172   0.990   1_556  S
O1155      H1187   0.990       .  S
O1156      H1173   0.990   1_554  S
O1157      H1177   0.990       .  S
O1157      H1186   0.990   1_554  S
O1158      C1159   1.276       .  A
C1159      C2789   1.470       .  S
O1160      H1179   0.991       .  S
O1160      H1183   0.990       .  S
O1161      H1175   0.990       .  S
O1161      H1182   0.990       .  S
O1162      C1166   1.291       .  A
O1163      C1166   1.281       .  A
O1164      H1174   0.990       .  S
O1165      H1178   0.990       .  S
C1166      C2696   1.485       .  S
Zr1189     O1190   2.443   1_554  S
Zr1189     O1191   2.437   1_554  S
Zr1189     O1192   2.449       .  S
Zr1189     O1195   2.456       .  S
Zr1189     O1197   2.384       .  S
Zr1189     O1198   2.389       .  S
Zr1189     O1199   2.409       .  S
Zr1189     O1200   2.397       .  S
O1190      H1246   0.990       .  S
O1190      H1254   0.991       .  S
O1191      C1211   1.283       .  A
O1192      C1213   1.285       .  A
O1193     Zr1203   2.423       .  S
O1193      C1212   1.283       .  A
O1194     Zr1202   2.429       .  S
O1194      C1213   1.283       .  A
O1195      C1212   1.288       .  A
O1196     Zr1204   2.391   1_556  S
O1196      C1211   1.275       .  A
O1197     Zr1202   2.397       .  S
O1197     Zr1204   2.382       .  S
O1198     Zr1203   2.394       .  S
O1198     Zr1204   2.379       .  S
O1198      H1233   0.968   1_554  S
O1199     Zr1202   2.401       .  S
O1199     Zr1219   2.385       .  S
O1199      H1236   0.963       .  S
O1200     Zr1203   2.385       .  S
O1200     Zr1219   2.383       .  S
Zr1201     O1226   2.442       .  S
Zr1201     O1220   2.451       .  S
Zr1201     O1228   2.459       .  S
Zr1201     O1216   2.449       .  S
Zr1201     O1207   2.399       .  S
Zr1201     O1208   2.417       .  S
Zr1201     O1209   2.386       .  S
Zr1201     O1210   2.389       .  S
Zr1202     O1221   2.437       .  S
Zr1202     O1214   2.434       .  S
Zr1202     O1215   2.429       .  S
Zr1202     O1208   2.405       .  S
Zr1202     O1209   2.396       .  S
Zr1203     O1205   2.437       .  S
Zr1203     O1227   2.440       .  S
Zr1203     O1229   2.425       .  S
Zr1203     O1207   2.389       .  S
Zr1203     O1210   2.391       .  S
Zr1204     O1230   2.436   1_554  S
Zr1204     O1231   2.435       .  S
Zr1204     O1206   2.438   1_554  S
Zr1204     O1207   2.382       .  S
Zr1204     O1208   2.383       .  S
O1205      H1242   0.990       .  S
O1206      H1237   0.990       .  S
O1206      H1251   0.990       .  S
O1208      H1234   0.963       .  S
O1209     Zr1219   2.384       .  S
O1210     Zr1219   2.385       .  S
O1210      H1235   0.965       .  S
C1211      C2645   1.460       .  S
C1212      C2624   1.478       .  S
C1213      C2735   1.473   1_554  S
O1214      H1250   0.990       .  S
O1215      C1217   1.283       .  A
O1216      C1217   1.285       .  A
C1217      C2678   1.471       .  S
O1218     Zr1219   2.439       .  S
O1218      H1247   0.990       .  S
Zr1219     O1222   2.436       .  S
Zr1219     O1223   2.439       .  S
Zr1219     O1224   2.397       .  S
O1220      C1225   1.286       .  A
O1221      H1238   0.990       .  S
O1221      H1253   0.990       .  S
O1222      H1239   0.990       .  S
O1223      H1243   0.990       .  S
O1223      H1252   0.990       .  S
O1224      C1225   1.277       .  A
C1225      C2663   1.471       .  S
O1226      H1245   0.991       .  S
O1226      H1249   0.990       .  S
O1227      H1241   0.990       .  S
O1227      H1248   0.990       .  S
O1228      C1232   1.288       .  A
O1229      C1232   1.283       .  A
O1230      H1240   0.990       .  S
O1231      H1244   0.990       .  S
C1232      C3581   1.480       .  S
Zr1255     O1256   2.445       .  S
Zr1255     O1257   2.444       .  S
Zr1255     O1258   2.464       .  S
Zr1255     O1261   2.468       .  S
Zr1255     O1263   2.392       .  S
Zr1255     O1264   2.392       .  S
Zr1255     O1265   2.412       .  S
Zr1255     O1266   2.405       .  S
O1256      H1312   0.991       .  S
O1256      H1320   0.991       .  S
O1257      C1277   1.284       .  A
O1258      C1279   1.287       .  A
O1259     Zr1269   2.421       .  S
O1259      C1278   1.282       .  A
O1260     Zr1268   2.425       .  S
O1260      C1279   1.282       .  A
O1261      C1278   1.290       .  A
O1262     Zr1270   2.391       .  S
O1262      C1277   1.276       .  A
O1263     Zr1268   2.396       .  S
O1263     Zr1270   2.386       .  S
O1264     Zr1269   2.390       .  S
O1264     Zr1270   2.381       .  S
O1264      H1299   0.964       .  S
O1265     Zr1268   2.403       .  S
O1265     Zr1285   2.376       .  S
O1265      H1302   0.961       .  S
O1266     Zr1269   2.391       .  S
O1266     Zr1285   2.392       .  S
Zr1267     O1292   2.442       .  S
Zr1267     O1286   2.465       .  S
Zr1267     O1294   2.470       .  S
Zr1267     O1282   2.465       .  S
Zr1267     O1273   2.403       .  S
Zr1267     O1274   2.417       .  S
Zr1267     O1275   2.387       .  S
Zr1267     O1276   2.389       .  S
Zr1268     O1287   2.438       .  S
Zr1268     O1280   2.435       .  S
Zr1268     O1281   2.420       .  S
Zr1268     O1274   2.400       .  S
Zr1268     O1275   2.401       .  S
Zr1269     O1271   2.434       .  S
Zr1269     O1293   2.439       .  S
Zr1269     O1295   2.415       .  S
Zr1269     O1273   2.388       .  S
Zr1269     O1276   2.393       .  S
Zr1270     O1296   2.434       .  S
Zr1270     O1297   2.437       .  S
Zr1270     O1272   2.438       .  S
Zr1270     O1273   2.382       .  S
Zr1270     O1274   2.378       .  S
O1271      H1308   0.990       .  S
O1272      H1303   0.990       .  S
O1272      H1317   0.990       .  S
O1274      H1300   0.960       .  S
O1275     Zr1285   2.384       .  S
O1276     Zr1285   2.379       .  S
O1276      H1301   0.964       .  S
C1277      C2642   1.463       .  S
C1278      C3527   1.485       .  S
C1279      C2606   1.476       .  S
O1280      H1316   0.990       .  S
O1281      C1283   1.281       .  A
O1282      C1283   1.289       .  A
C1283      C2825   1.472       .  S
O1284     Zr1285   2.437       .  S
O1284      H1313   0.990       .  S
Zr1285     O1288   2.439       .  S
Zr1285     O1289   2.441       .  S
Zr1285     O1290   2.389       .  S
O1286      C1291   1.288       .  A
O1287      H1304   0.990       .  S
O1287      H1319   0.991       .  S
O1288      H1305   0.990       .  S
O1289      H1309   0.990       .  S
O1289      H1318   0.990       .  S
O1290      C1291   1.275       .  A
C1291      C2660   1.473       .  S
O1292      H1311   0.991       .  S
O1292      H1315   0.990       .  S
O1293      H1307   0.990       .  S
O1293      H1314   0.990       .  S
O1294      C1298   1.291       .  A
O1295      C1298   1.282       .  A
O1296      H1306   0.990       .  S
O1297      H1310   0.990       .  S
C1298      C2591   1.482       .  S
Zr1321     O1322   2.442       .  S
Zr1321     O1323   2.449       .  S
Zr1321     O1324   2.463       .  S
Zr1321     O1327   2.467       .  S
Zr1321     O1329   2.391       .  S
Zr1321     O1330   2.391       .  S
Zr1321     O1331   2.415       .  S
Zr1321     O1332   2.399       .  S
O1322      H1378   0.990       .  S
O1322      H1386   0.991       .  S
O1323      C1343   1.285       .  A
O1324      C1345   1.288       .  A
O1325     Zr1335   2.410       .  S
O1325      C1344   1.282       .  A
O1326     Zr1334   2.424       .  S
O1326      C1345   1.282       .  A
O1327      C1344   1.290       .  A
O1328     Zr1336   2.402       .  S
O1328      C1343   1.278       .  A
O1329     Zr1334   2.398       .  S
O1329     Zr1336   2.383       .  S
O1330     Zr1335   2.392       .  S
O1330     Zr1336   2.376       .  S
O1330      H1365   0.974       .  S
O1331     Zr1334   2.402       .  S
O1331     Zr1351   2.379       .  S
O1331      H1368   0.965       .  S
O1332     Zr1335   2.388       .  S
O1332     Zr1351   2.376       .  S
Zr1333     O1358   2.441       .  S
Zr1333     O1352   2.457       .  S
Zr1333     O1360   2.465       .  S
Zr1333     O1348   2.452       .  S
Zr1333     O1339   2.399       .  S
Zr1333     O1340   2.417       .  S
Zr1333     O1341   2.384       .  S
Zr1333     O1342   2.386       .  S
Zr1334     O1353   2.437       .  S
Zr1334     O1346   2.435       .  S
Zr1334     O1347   2.434       .  S
Zr1334     O1340   2.399       .  S
Zr1334     O1341   2.391       .  S
Zr1335     O1337   2.436       .  S
Zr1335     O1359   2.436       .  S
Zr1335     O1361   2.418       .  S
Zr1335     O1339   2.383       .  S
Zr1335     O1342   2.391       .  S
Zr1336     O1362   2.436       .  S
Zr1336     O1363   2.435       .  S
Zr1336     O1338   2.436       .  S
Zr1336     O1339   2.384       .  S
Zr1336     O1340   2.386       .  S
O1337      H1374   0.990       .  S
O1338      H1369   0.991       .  S
O1338      H1383   0.990       .  S
O1340      H1366   0.965       .  S
O1341     Zr1351   2.385       .  S
O1342     Zr1351   2.383       .  S
O1342      H1367   0.964       .  S
C1343      C2534   1.471       .  S
C1344      C3743   1.478       .  S
C1345      C2681   1.474       .  S
O1346      H1382   0.990       .  S
O1347      C1349   1.284       .  A
O1348      C1349   1.286       .  A
C1349      C2570   1.475       .  S
O1350     Zr1351   2.438       .  S
O1350      H1379   0.990       .  S
Zr1351     O1354   2.437       .  S
Zr1351     O1355   2.439       .  S
Zr1351     O1356   2.381       .  S
O1352      C1357   1.287       .  A
O1353      H1370   0.990       .  S
O1353      H1385   0.990       .  S
O1354      H1371   0.990       .  S
O1355      H1375   0.990       .  S
O1355      H1384   0.990       .  S
O1356      C1357   1.275       .  A
C1357      C2552   1.466       .  S
O1358      H1377   0.991       .  S
O1358      H1381   0.990       .  S
O1359      H1373   0.990       .  S
O1359      H1380   0.990       .  S
O1360      C1364   1.289       .  A
O1361      C1364   1.282       .  A
O1362      H1372   0.990       .  S
O1363      H1376   0.990       .  S
C1364      C2516   1.481       .  S
Zr1387     O1388   2.442       .  S
Zr1387     O1389   2.456       .  S
Zr1387     O1390   2.470       .  S
Zr1387     O1393   2.465       .  S
Zr1387     O1395   2.393       .  S
Zr1387     O1396   2.393       .  S
Zr1387     O1397   2.415       .  S
Zr1387     O1398   2.405       .  S
O1388      H1444   0.990       .  S
O1388      H1452   0.991       .  S
O1389      C1409   1.287       .  A
O1390      C1411   1.289       .  A
O1391     Zr1401   2.412       .  S
O1391      C1410   1.281       .  A
O1392     Zr1400   2.427       .  S
O1392      C1411   1.284       .  A
O1393      C1410   1.289       .  A
O1394     Zr1402   2.386       .  S
O1394      C1409   1.275       .  A
O1395     Zr1400   2.396       .  S
O1395     Zr1402   2.386       .  S
O1396     Zr1401   2.389       .  S
O1396     Zr1402   2.383       .  S
O1396      H1431   0.969       .  S
O1397     Zr1400   2.399       .  S
O1397     Zr1417   2.378       .  S
O1397      H1434   0.964       .  S
O1398     Zr1401   2.382       .  S
O1398     Zr1417   2.381       .  S
Zr1399     O1424   2.442       .  S
Zr1399     O1418   2.454       .  S
Zr1399     O1426   2.463       .  S
Zr1399     O1414   2.458       .  S
Zr1399     O1405   2.402       .  S
Zr1399     O1406   2.414       .  S
Zr1399     O1407   2.390       .  S
Zr1399     O1408   2.392       .  S
Zr1400     O1419   2.435       .  S
Zr1400     O1412   2.435       .  S
Zr1400     O1413   2.441       .  S
Zr1400     O1406   2.399       .  S
Zr1400     O1407   2.396       .  S
Zr1401     O1403   2.435       .  S
Zr1401     O1425   2.437       .  S
Zr1401     O1427   2.409       .  S
Zr1401     O1405   2.385       .  S
Zr1401     O1408   2.391       .  S
Zr1402     O1428   2.438       .  S
Zr1402     O1429   2.438       .  S
Zr1402     O1404   2.439       .  S
Zr1402     O1405   2.381       .  S
Zr1402     O1406   2.382       .  S
O1403      H1440   0.990       .  S
O1404      H1435   0.990       .  S
O1404      H1449   0.990       .  S
O1406      H1432   0.962       .  S
O1407     Zr1417   2.389       .  S
O1408     Zr1417   2.382       .  S
O1408      H1433   0.962       .  S
C1409      C2555   1.467       .  S
C1410      C3671   1.480       .  S
C1411      C2609   1.479       .  S
O1412      H1448   0.990       .  S
O1413      C1415   1.285       .  A
O1414      C1415   1.287       .  A
C1415      C2498   1.482       .  S
O1416     Zr1417   2.439       .  S
O1416      H1445   0.990       .  S
Zr1417     O1420   2.436       .  S
Zr1417     O1421   2.442       .  S
Zr1417     O1422   2.390       .  S
O1418      C1423   1.287       .  A
O1419      H1436   0.990       .  S
O1419      H1451   0.990       .  S
O1420      H1437   0.990       .  S
O1421      H1441   0.990       .  S
O1421      H1450   0.989       .  S
O1422      C1423   1.276       .  A
C1423      C2537   1.468       .  S
O1424      H1443   0.991       .  S
O1424      H1447   0.990       .  S
O1425      H1439   0.990       .  S
O1425      H1446   0.991       .  S
O1426      C1430   1.288       .  A
O1427      C1430   1.281       .  A
O1428      H1438   0.990       .  S
O1429      H1442   0.990       .  S
C1430      C2480   1.477       .  S
Zr1453     O1454   2.443       .  S
Zr1453     O1455   2.448       .  S
Zr1453     O1456   2.459       .  S
Zr1453     O1459   2.463       .  S
Zr1453     O1461   2.392       .  S
Zr1453     O1462   2.390       .  S
Zr1453     O1463   2.410       .  S
Zr1453     O1464   2.399       .  S
O1454      H1510   0.990       .  S
O1454      H1518   0.991       .  S
O1455      C1475   1.285       .  A
O1456      C1477   1.287       .  A
O1457     Zr1467   2.417       .  S
O1457      C1476   1.282       .  A
O1458     Zr1466   2.431       .  S
O1458      C1477   1.283       .  A
O1459      C1476   1.289       .  A
O1460     Zr1468   2.396       .  S
O1460      C1475   1.276       .  A
O1461     Zr1466   2.400       .  S
O1461     Zr1468   2.383       .  S
O1462     Zr1467   2.390       .  S
O1462     Zr1468   2.376       .  S
O1462      H1497   0.961       .  S
O1463     Zr1466   2.398       .  S
O1463     Zr1483   2.376       .  S
O1463      H1500   0.963       .  S
O1464     Zr1467   2.387       .  S
O1464     Zr1483   2.379       .  S
Zr1465     O1490   2.440       .  S
Zr1465     O1484   2.448       .  S
Zr1465     O1492   2.468       .  S
Zr1465     O1480   2.462       .  S
Zr1465     O1471   2.402       .  S
Zr1465     O1472   2.417       .  S
Zr1465     O1473   2.386       .  S
Zr1465     O1474   2.388       .  S
Zr1466     O1485   2.435       .  S
Zr1466     O1478   2.438       .  S
Zr1466     O1479   2.432       .  S
Zr1466     O1472   2.405       .  S
Zr1466     O1473   2.395       .  S
Zr1467     O1469   2.434       .  S
Zr1467     O1491   2.439       .  S
Zr1467     O1493   2.422       .  S
Zr1467     O1471   2.385       .  S
Zr1467     O1474   2.392       .  S
Zr1468     O1494   2.437       .  S
Zr1468     O1495   2.435       .  S
Zr1468     O1470   2.439       .  S
Zr1468     O1471   2.392       .  S
Zr1468     O1472   2.382       .  S
O1469      H1506   0.990       .  S
O1470      H1501   0.990       .  S
O1470      H1515   0.990       .  S
O1472      H1498   0.964       .  S
O1473     Zr1483   2.383       .  S
O1474     Zr1483   2.384       .  S
O1474      H1499   0.968       .  S
C1475      C2462   1.467       .  S
C1476      C2426   1.479       .  S
C1477      C2573   1.477       .  S
O1478      H1514   0.990       .  S
O1479      C1481   1.284       .  A
O1480      C1481   1.289       .  A
C1481      C2804   1.480       .  S
O1482     Zr1483   2.439       .  S
O1482      H1511   0.990       .  S
Zr1483     O1486   2.440       .  S
Zr1483     O1487   2.437       .  S
Zr1483     O1488   2.387       .  S
O1484      C1489   1.285       .  A
O1485      H1502   0.990       .  S
O1485      H1517   0.990       .  S
O1486      H1503   0.990       .  S
O1487      H1507   0.990       .  S
O1487      H1516   0.990       .  S
O1488      C1489   1.276       .  A
C1489      C2444   1.465       .  S
O1490      H1509   0.991       .  S
O1490      H1513   0.990       .  S
O1491      H1505   0.990       .  S
O1491      H1512   0.990       .  S
O1492      C1496   1.289       .  A
O1493      C1496   1.283       .  A
O1494      H1504   0.990       .  S
O1495      H1508   0.990       .  S
C1496      C3326   1.487       .  S
Zr1519     O1520   2.442       .  S
Zr1519     O1521   2.445       .  S
Zr1519     O1522   2.468       .  S
Zr1519     O1525   2.461       .  S
Zr1519     O1527   2.386       .  S
Zr1519     O1528   2.394       .  S
Zr1519     O1529   2.408       .  S
Zr1519     O1530   2.404       .  S
O1520      H1576   0.990       .  S
O1520      H1584   0.991       .  S
O1521      C1541   1.285       .  A
O1522      C1543   1.289       .  A
O1523     Zr1533   2.420       .  S
O1523      C1542   1.283       .  A
O1524     Zr1532   2.423       .  S
O1524      C1543   1.282       .  A
O1525      C1542   1.289       .  A
O1526     Zr1534   2.396       .  S
O1526      C1541   1.276       .  A
O1527     Zr1532   2.398       .  S
O1527     Zr1534   2.384       .  S
O1528     Zr1533   2.395       .  S
O1528     Zr1534   2.378       .  S
O1528      H1563   0.953       .  S
O1529     Zr1532   2.400       .  S
O1529     Zr1549   2.379       .  S
O1529      H1566   0.960       .  S
O1530     Zr1533   2.388       .  S
O1530     Zr1549   2.388       .  S
Zr1531     O1556   2.443       .  S
Zr1531     O1550   2.455       .  S
Zr1531     O1558   2.464       .  S
Zr1531     O1546   2.473       .  S
Zr1531     O1537   2.411       .  S
Zr1531     O1538   2.413       .  S
Zr1531     O1539   2.385       .  S
Zr1531     O1540   2.395       .  S
Zr1532     O1551   2.435       .  S
Zr1532     O1544   2.435       .  S
Zr1532     O1545   2.429       .  S
Zr1532     O1538   2.401       .  S
Zr1532     O1539   2.394       .  S
Zr1533     O1535   2.435       .  S
Zr1533     O1557   2.438       .  S
Zr1533     O1559   2.419       .  S
Zr1533     O1537   2.392       .  S
Zr1533     O1540   2.393       .  S
Zr1534     O1560   2.439       .  S
Zr1534     O1561   2.435       .  S
Zr1534     O1536   2.437       .  S
Zr1534     O1537   2.388       .  S
Zr1534     O1538   2.380       .  S
O1535      H1572   0.990       .  S
O1536      H1567   0.990       .  S
O1536      H1581   0.990       .  S
O1538      H1564   0.959       .  S
O1539     Zr1549   2.386       .  S
O1540     Zr1549   2.381       .  S
O1540      H1565   0.972       .  S
C1541      C2465   1.467       .  S
C1542      C3290   1.480       .  S
C1543      C2717   1.480       .  S
O1544      H1580   0.990       .  S
O1545      C1547   1.283       .  A
O1546      C1547   1.289       .  A
C1547      C2501   1.479       .  S
O1548     Zr1549   2.438       .  S
O1548      H1577   0.990       .  S
Zr1549     O1552   2.438       .  S
Zr1549     O1553   2.439       .  S
Zr1549     O1554   2.394       .  S
O1550      C1555   1.287       .  A
O1551      H1568   0.990       .  S
O1551      H1583   0.990       .  S
O1552      H1569   0.990       .  S
O1553      H1573   0.990       .  S
O1553      H1582   0.990       .  S
O1554      C1555   1.276       .  A
C1555      C2447   1.469       .  S
O1556      H1575   0.992       .  S
O1556      H1579   0.989       .  S
O1557      H1571   0.990       .  S
O1557      H1578   0.990       .  S
O1558      C1562   1.289       .  A
O1559      C1562   1.282       .  A
O1560      H1570   0.990       .  S
O1561      H1574   0.990       .  S
C1562      C2408   1.480       .  S
Zr1585     O1586   2.443       .  S
Zr1585     O1587   2.450       .  S
Zr1585     O1588   2.465       .  S
Zr1585     O1591   2.459       .  S
Zr1585     O1593   2.387       .  S
Zr1585     O1594   2.390       .  S
Zr1585     O1595   2.415       .  S
Zr1585     O1596   2.403       .  S
O1586      H1642   0.990       .  S
O1586      H1650   0.991       .  S
O1587      C1607   1.285       .  A
O1588      C1609   1.288       .  A
O1589     Zr1599   2.428       .  S
O1589      C1608   1.284       .  A
O1590     Zr1598   2.431       .  S
O1590      C1609   1.283       .  A
O1591      C1608   1.288       .  A
O1592     Zr1600   2.387       .  S
O1592      C1607   1.274       .  A
O1593     Zr1598   2.393       .  S
O1593     Zr1600   2.384       .  S
O1594     Zr1599   2.395       .  S
O1594     Zr1600   2.380       .  S
O1594      H1629   0.966       .  S
O1595     Zr1598   2.401       .  S
O1595     Zr1615   2.383       .  S
O1595      H1632   0.959       .  S
O1596     Zr1599   2.393       .  S
O1596     Zr1615   2.387       .  S
Zr1597     O1622   2.440   1_554  S
Zr1597     O1616   2.459   1_554  S
Zr1597     O1624   2.451       .  S
Zr1597     O1612   2.460       .  S
Zr1597     O1603   2.399       .  S
Zr1597     O1604   2.413       .  S
Zr1597     O1605   2.381       .  S
Zr1597     O1606   2.387       .  S
Zr1598     O1617   2.437       .  S
Zr1598     O1610   2.437       .  S
Zr1598     O1611   2.424       .  S
Zr1598     O1604   2.400       .  S
Zr1598     O1605   2.397       .  S
Zr1599     O1601   2.436       .  S
Zr1599     O1623   2.438       .  S
Zr1599     O1625   2.430       .  S
Zr1599     O1603   2.385       .  S
Zr1599     O1606   2.394       .  S
Zr1600     O1626   2.439       .  S
Zr1600     O1627   2.434       .  S
Zr1600     O1602   2.437       .  S
Zr1600     O1603   2.379       .  S
Zr1600     O1604   2.388       .  S
O1601      H1638   0.990       .  S
O1602      H1633   0.990       .  S
O1602      H1647   0.990       .  S
O1604      H1630   0.964       .  S
O1605     Zr1615   2.381       .  S
O1606     Zr1615   2.381       .  S
O1606      H1631   0.967   1_554  S
C1607      C2354   1.465       .  S
C1608      C2375   1.478       .  S
C1609      C3185   1.480       .  S
O1610      H1646   0.990       .  S
O1611      C1613   1.284       .  A
O1612      C1613   1.288       .  A
C1613      C2627   1.477       .  S
O1614     Zr1615   2.437       .  S
O1614      H1643   0.990   1_554  S
Zr1615     O1618   2.438   1_554  S
Zr1615     O1619   2.438   1_554  S
Zr1615     O1620   2.390   1_554  S
O1616      C1621   1.288       .  A
O1617      H1634   0.990       .  S
O1617      H1649   0.990       .  S
O1618      H1635   0.990       .  S
O1619      H1639   0.990       .  S
O1619      H1648   0.990   1_556  S
O1620      C1621   1.276       .  A
C1621      C2336   1.471       .  S
O1622      H1641   0.991   1_556  S
O1622      H1645   0.990       .  S
O1623      H1637   0.990       .  S
O1623      H1644   0.990       .  S
O1624      C1628   1.287       .  A
O1625      C1628   1.284       .  A
O1626      H1636   0.990       .  S
O1627      H1640   0.990       .  S
C1628      C2390   1.478       .  S
Zr1651     O1652   2.444       .  S
Zr1651     O1653   2.463       .  S
Zr1651     O1654   2.466       .  S
Zr1651     O1657   2.465       .  S
Zr1651     O1659   2.386       .  S
Zr1651     O1660   2.389       .  S
Zr1651     O1661   2.417       .  S
Zr1651     O1662   2.408       .  S
O1652      H1708   0.990       .  S
O1652      H1716   0.991       .  S
O1653      C1673   1.288       .  A
O1654      C1675   1.289       .  A
O1655     Zr1665   2.422       .  S
O1655      C1674   1.283       .  A
O1656     Zr1664   2.434       .  S
O1656      C1675   1.284       .  A
O1657      C1674   1.290       .  A
O1658     Zr1666   2.388       .  S
O1658      C1673   1.276       .  A
O1659     Zr1664   2.397       .  S
O1659     Zr1666   2.381       .  S
O1660     Zr1665   2.395       .  S
O1660     Zr1666   2.379       .  S
O1660      H1695   0.967       .  S
O1661     Zr1664   2.403       .  S
O1661     Zr1681   2.384       .  S
O1661      H1698   0.963       .  S
O1662     Zr1665   2.392       .  S
O1662     Zr1681   2.388       .  S
Zr1663     O1688   2.443       .  S
Zr1663     O1682   2.444       .  S
Zr1663     O1690   2.464       .  S
Zr1663     O1678   2.463       .  S
Zr1663     O1669   2.402       .  S
Zr1663     O1670   2.407       .  S
Zr1663     O1671   2.391       .  S
Zr1663     O1672   2.391       .  S
Zr1664     O1683   2.437       .  S
Zr1664     O1676   2.435       .  S
Zr1664     O1677   2.431       .  S
Zr1664     O1670   2.400       .  S
Zr1664     O1671   2.396       .  S
Zr1665     O1667   2.435       .  S
Zr1665     O1689   2.438       .  S
Zr1665     O1691   2.416       .  S
Zr1665     O1669   2.394       .  S
Zr1665     O1672   2.391       .  S
Zr1666     O1692   2.435       .  S
Zr1666     O1693   2.435       .  S
Zr1666     O1668   2.438       .  S
Zr1666     O1669   2.386       .  S
Zr1666     O1670   2.377       .  S
O1667      H1704   0.990       .  S
O1668      H1699   0.990       .  S
O1668      H1713   0.990       .  S
O1670      H1696   0.966       .  S
O1671     Zr1681   2.381       .  S
O1672     Zr1681   2.382       .  S
O1672      H1697   0.968       .  S
C1673      C2339   1.473       .  S
C1674      C2300   1.480       .  S
C1675      C3131   1.483       .  S
O1676      H1712   0.990       .  S
O1677      C1679   1.285       .  A
O1678      C1679   1.289       .  A
C1679      C2588   1.483       .  S
O1680     Zr1681   2.440       .  S
O1680      H1709   0.991       .  S
Zr1681     O1684   2.437       .  S
Zr1681     O1685   2.441       .  S
Zr1681     O1686   2.391       .  S
O1682      C1687   1.284       .  A
O1683      H1700   0.990       .  S
O1683      H1715   0.990       .  S
O1684      H1701   0.990       .  S
O1685      H1705   0.990       .  S
O1685      H1714   0.990       .  S
O1686      C1687   1.276       .  A
C1687      C2357   1.464       .  S
O1688      H1707   0.991       .  S
O1688      H1711   0.991       .  S
O1689      H1703   0.990       .  S
O1689      H1710   0.990       .  S
O1690      C1694   1.287       .  A
O1691      C1694   1.281       .  A
O1692      H1702   0.990       .  S
O1693      H1706   0.990       .  S
C1694      C2318   1.479       .  S
Zr1717     O1718   2.441       .  S
Zr1717     O1719   2.462       .  S
Zr1717     O1720   2.469       .  S
Zr1717     O1723   2.457       .  S
Zr1717     O1725   2.383       .  S
Zr1717     O1726   2.389       .  S
Zr1717     O1727   2.414       .  S
Zr1717     O1728   2.402       .  S
O1718      H1774   0.990       .  S
O1718      H1782   0.991       .  S
O1719      C1739   1.288       .  A
O1720      C1741   1.288       .  A
O1721     Zr1731   2.424       .  S
O1721      C1740   1.283       .  A
O1722     Zr1730   2.427       .  S
O1722      C1741   1.283       .  A
O1723      C1740   1.289       .  A
O1724     Zr1732   2.403       .  S
O1724      C1739   1.278       .  A
O1725     Zr1730   2.397       .  S
O1725     Zr1732   2.384       .  S
O1726     Zr1731   2.397       .  S
O1726     Zr1732   2.377       .  S
O1726      H1761   0.964       .  S
O1727     Zr1730   2.401       .  S
O1727     Zr1747   2.392       .  S
O1727      H1764   0.964       .  S
O1728     Zr1731   2.386       .  S
O1728     Zr1747   2.379       .  S
Zr1729     O1754   2.444       .  S
Zr1729     O1748   2.445       .  S
Zr1729     O1756   2.466       .  S
Zr1729     O1744   2.463       .  S
Zr1729     O1735   2.403       .  S
Zr1729     O1736   2.413       .  S
Zr1729     O1737   2.388       .  S
Zr1729     O1738   2.390       .  S
Zr1730     O1749   2.437       .  S
Zr1730     O1742   2.434       .  S
Zr1730     O1743   2.438       .  S
Zr1730     O1736   2.398       .  S
Zr1730     O1737   2.396       .  S
Zr1731     O1733   2.436       .  S
Zr1731     O1755   2.438       .  S
Zr1731     O1757   2.408       .  S
Zr1731     O1735   2.394       .  S
Zr1731     O1738   2.393       .  S
Zr1732     O1758   2.435       .  S
Zr1732     O1759   2.435       .  S
Zr1732     O1734   2.438       .  S
Zr1732     O1735   2.386       .  S
Zr1732     O1736   2.385       .  S
O1733      H1770   0.990       .  S
O1734      H1765   0.990       .  S
O1734      H1779   0.990       .  S
O1736      H1762   0.965       .  S
O1737     Zr1747   2.387       .  S
O1738     Zr1747   2.381       .  S
O1738      H1763   0.972       .  S
C1739      C2246   1.477       .  S
C1740      C2321   1.475       .  S
C1741      C2753   1.483       .  S
O1742      H1778   0.990       .  S
O1743      C1745   1.286       .  A
O1744      C1745   1.290       .  A
C1745      C2858   1.483       .  S
O1746     Zr1747   2.435       .  S
O1746      H1775   0.990       .  S
Zr1747     O1750   2.435       .  S
Zr1747     O1751   2.441       .  S
Zr1747     O1752   2.392       .  S
O1748      C1753   1.285       .  A
O1749      H1766   0.990       .  S
O1749      H1781   0.990       .  S
O1750      H1767   0.990       .  S
O1751      H1771   0.990       .  S
O1751      H1780   0.990       .  S
O1752      C1753   1.275       .  A
C1753      C2264   1.464       .  S
O1754      H1773   0.991       .  S
O1754      H1777   0.990       .  S
O1755      H1769   0.990       .  S
O1755      H1776   0.989       .  S
O1756      C1760   1.288       .  A
O1757      C1760   1.279       .  A
O1758      H1768   0.990       .  S
O1759      H1772   0.990       .  S
C1760      C2285   1.475       .  S
Zr1783     O1784   2.441       .  S
Zr1783     O1785   2.460       .  S
Zr1783     O1786   2.470       .  S
Zr1783     O1789   2.470       .  S
Zr1783     O1791   2.390       .  S
Zr1783     O1792   2.390       .  S
Zr1783     O1793   2.418       .  S
Zr1783     O1794   2.405       .  S
O1784      H1840   0.990       .  S
O1784      H1848   0.991       .  S
O1785      C1805   1.287       .  A
O1786      C1807   1.290       .  A
O1787     Zr1797   2.418       .  S
O1787      C1806   1.282       .  A
O1788     Zr1796   2.432       .  S
O1788      C1807   1.284       .  A
O1789      C1806   1.290       .  A
O1790     Zr1798   2.388       .  S
O1790      C1805   1.275       .  A
O1791     Zr1796   2.399       .  S
O1791     Zr1798   2.382       .  S
O1792     Zr1797   2.393       .  S
O1792     Zr1798   2.379       .  S
O1792      H1827   0.969       .  S
O1793     Zr1796   2.404       .  S
O1793     Zr1813   2.380       .  S
O1793      H1830   0.960       .  S
O1794     Zr1797   2.395       .  S
O1794     Zr1813   2.389       .  S
Zr1795     O1820   2.441   1_556  S
Zr1795     O1814   2.448   1_556  S
Zr1795     O1822   2.451       .  S
Zr1795     O1810   2.460       .  S
Zr1795     O1801   2.398       .  S
Zr1795     O1802   2.410       .  S
Zr1795     O1803   2.385       .  S
Zr1795     O1804   2.388       .  S
Zr1796     O1815   2.437       .  S
Zr1796     O1808   2.435       .  S
Zr1796     O1809   2.430       .  S
Zr1796     O1802   2.402       .  S
Zr1796     O1803   2.392       .  S
Zr1797     O1799   2.436       .  S
Zr1797     O1821   2.436       .  S
Zr1797     O1823   2.425       .  S
Zr1797     O1801   2.388       .  S
Zr1797     O1804   2.388       .  S
Zr1798     O1824   2.436       .  S
Zr1798     O1825   2.436       .  S
Zr1798     O1800   2.436       .  S
Zr1798     O1801   2.383       .  S
Zr1798     O1802   2.384       .  S
O1799      H1836   0.990       .  S
O1800      H1831   0.990       .  S
O1800      H1845   0.990       .  S
O1802      H1828   0.969       .  S
O1803     Zr1813   2.380       .  S
O1804     Zr1813   2.382       .  S
O1804      H1829   0.966   1_556  S
C1805      C2249   1.472       .  S
C1806      C2228   1.480       .  S
C1807      C2843   1.483       .  S
O1808      H1844   0.990       .  S
O1809      C1811   1.284       .  A
O1810      C1811   1.287       .  A
C1811      C2699   1.481       .  S
O1812     Zr1813   2.439       .  S
O1812      H1841   0.991   1_556  S
Zr1813     O1816   2.440   1_556  S
Zr1813     O1817   2.438   1_556  S
Zr1813     O1818   2.385   1_556  S
O1814      C1819   1.285       .  A
O1815      H1832   0.990       .  S
O1815      H1847   0.990       .  S
O1816      H1833   0.990       .  S
O1817      H1837   0.990       .  S
O1817      H1846   0.990   1_554  S
O1818      C1819   1.275       .  A
C1819      C2267   1.462       .  S
O1820      H1839   0.991   1_554  S
O1820      H1843   0.990       .  S
O1821      H1835   0.990       .  S
O1821      H1842   0.990       .  S
O1822      C1826   1.287       .  A
O1823      C1826   1.282       .  A
O1824      H1834   0.990       .  S
O1825      H1838   0.990       .  S
C1826      C2393   1.474       .  S
Zr1849     O1850   2.443       .  S
Zr1849     O1851   2.455       .  S
Zr1849     O1852   2.470       .  S
Zr1849     O1855   2.458       .  S
Zr1849     O1857   2.385       .  S
Zr1849     O1858   2.393       .  S
Zr1849     O1859   2.413       .  S
Zr1849     O1860   2.401       .  S
O1850      H1906   0.990       .  S
O1850      H1914   0.991       .  S
O1851      C1871   1.286       .  A
O1852      C1873   1.289       .  A
O1853     Zr1863   2.434       .  S
O1853      C1872   1.285       .  A
O1854     Zr1862   2.428       .  S
O1854      C1873   1.284       .  A
O1855      C1872   1.288       .  A
O1856     Zr1864   2.387       .  S
O1856      C1871   1.274       .  A
O1857     Zr1862   2.395       .  S
O1857     Zr1864   2.385       .  S
O1858     Zr1863   2.398       .  S
O1858     Zr1864   2.380       .  S
O1858      H1893   0.966       .  S
O1859     Zr1862   2.399       .  S
O1859     Zr1879   2.384       .  S
O1859      H1896   0.964       .  S
O1860     Zr1863   2.384       .  S
O1860     Zr1879   2.382       .  S
Zr1861     O1886   2.443       .  S
Zr1861     O1880   2.462       .  S
Zr1861     O1888   2.461       .  S
Zr1861     O1876   2.458       .  S
Zr1861     O1867   2.410       .  S
Zr1861     O1868   2.412       .  S
Zr1861     O1869   2.388       .  S
Zr1861     O1870   2.387       .  S
Zr1862     O1881   2.438       .  S
Zr1862     O1874   2.435       .  S
Zr1862     O1875   2.428       .  S
Zr1862     O1868   2.399       .  S
Zr1862     O1869   2.395       .  S
Zr1863     O1865   2.434       .  S
Zr1863     O1887   2.440       .  S
Zr1863     O1889   2.429       .  S
Zr1863     O1867   2.404       .  S
Zr1863     O1870   2.395       .  S
Zr1864     O1890   2.434       .  S
Zr1864     O1891   2.435       .  S
Zr1864     O1866   2.439       .  S
Zr1864     O1867   2.392       .  S
Zr1864     O1868   2.375       .  S
O1865      H1902   0.990       .  S
O1866      H1897   0.990       .  S
O1866      H1911   0.990       .  S
O1868      H1894   0.966       .  S
O1869     Zr1879   2.379       .  S
O1870     Zr1879   2.379       .  S
O1870      H1895   0.967       .  S
C1871      C2195   1.467       .  S
C1872      C2210   1.480       .  S
C1873      C2429   1.482       .  S
O1874      H1910   0.990       .  S
O1875      C1877   1.284       .  A
O1876      C1877   1.288       .  A
C1877      C2948   1.477       .  S
O1878     Zr1879   2.436       .  S
O1878      H1907   0.990       .  S
Zr1879     O1882   2.436       .  S
Zr1879     O1883   2.440       .  S
Zr1879     O1884   2.388       .  S
O1880      C1885   1.287       .  A
O1881      H1898   0.990       .  S
O1881      H1913   0.990       .  S
O1882      H1899   0.989       .  S
O1883      H1903   0.990       .  S
O1883      H1912   0.990       .  S
O1884      C1885   1.276       .  A
C1885      C2174   1.472       .  S
O1886      H1905   0.990       .  S
O1886      H1909   0.990       .  S
O1887      H1901   0.990       .  S
O1887      H1908   0.990       .  S
O1888      C1892   1.288       .  A
O1889      C1892   1.283       .  A
O1890      H1900   0.990       .  S
O1891      H1904   0.990       .  S
C1892      C2282   1.476       .  S
Zr1915     O1916   2.441       .  S
Zr1915     O1917   2.462       .  S
Zr1915     O1918   2.473       .  S
Zr1915     O1921   2.455       .  S
Zr1915     O1923   2.385       .  S
Zr1915     O1924   2.392       .  S
Zr1915     O1925   2.414       .  S
Zr1915     O1926   2.406       .  S
O1916      H1972   0.990       .  S
O1916      H1980   0.991       .  S
O1917      C1937   1.288       .  A
O1918      C1939   1.289       .  A
O1919     Zr1929   2.419       .  S
O1919      C1938   1.282       .  A
O1920     Zr1928   2.423       .  S
O1920      C1939   1.283       .  A
O1921      C1938   1.288       .  A
O1922     Zr1930   2.383       .  S
O1922      C1937   1.275       .  A
O1923     Zr1928   2.397       .  S
O1923     Zr1930   2.385       .  S
O1924     Zr1929   2.393       .  S
O1924     Zr1930   2.379       .  S
O1924      H1959   0.961       .  S
O1925     Zr1928   2.397       .  S
O1925     Zr1945   2.389       .  S
O1925      H1962   0.963       .  S
O1926     Zr1929   2.385       .  S
O1926     Zr1945   2.382       .  S
Zr1927     O1952   2.443       .  S
Zr1927     O1946   2.441       .  S
Zr1927     O1954   2.470       .  S
Zr1927     O1942   2.466       .  S
Zr1927     O1933   2.401       .  S
Zr1927     O1934   2.411       .  S
Zr1927     O1935   2.389       .  S
Zr1927     O1936   2.395       .  S
Zr1928     O1947   2.436       .  S
Zr1928     O1940   2.435       .  S
Zr1928     O1941   2.427       .  S
Zr1928     O1934   2.398       .  S
Zr1928     O1935   2.386       .  S
Zr1929     O1931   2.435       .  S
Zr1929     O1953   2.438       .  S
Zr1929     O1955   2.415       .  S
Zr1929     O1933   2.392       .  S
Zr1929     O1936   2.392       .  S
Zr1930     O1956   2.436       .  S
Zr1930     O1957   2.435       .  S
Zr1930     O1932   2.439       .  S
Zr1930     O1933   2.383       .  S
Zr1930     O1934   2.374       .  S
O1931      H1968   0.990       .  S
O1932      H1963   0.990       .  S
O1932      H1977   0.990       .  S
O1934      H1960   0.965       .  S
O1935     Zr1945   2.384       .  S
O1936     Zr1945   2.384       .  S
O1936      H1961   0.961       .  S
C1937      C2177   1.469       .  S
C1938      C2156   1.472       .  S
C1939      C2411   1.483       .  S
O1940      H1976   0.990       .  S
O1941      C1943   1.285       .  A
O1942      C1943   1.290       .  A
C1943      C2915   1.481       .  S
O1944     Zr1945   2.437       .  S
O1944      H1973   0.991       .  S
Zr1945     O1948   2.436       .  S
Zr1945     O1949   2.439       .  S
Zr1945     O1950   2.399       .  S
O1946      C1951   1.283       .  A
O1947      H1964   0.990       .  S
O1947      H1979   0.990       .  S
O1948      H1965   0.990       .  S
O1949      H1969   0.990       .  S
O1949      H1978   0.990       .  S
O1950      C1951   1.278       .  A
C1951      C2192   1.466       .  S
O1952      H1971   0.991       .  S
O1952      H1975   0.990       .  S
O1953      H1967   0.990       .  S
O1953      H1974   0.990       .  S
O1954      C1958   1.289       .  A
O1955      C1958   1.281       .  A
O1956      H1966   0.990       .  S
O1957      H1970   0.990       .  S
C1958      C2231   1.479       .  S
Zr1981     O1982   2.443       .  S
Zr1981     O1983   2.446       .  S
Zr1981     O1984   2.472       .  S
Zr1981     O1987   2.456       .  S
Zr1981     O1989   2.387       .  S
Zr1981     O1990   2.396       .  S
Zr1981     O1991   2.412       .  S
Zr1981     O1992   2.402       .  S
O1982      H2038   0.990       .  S
O1982      H2046   0.991       .  S
O1983      C2003   1.284       .  A
O1984      C2005   1.289       .  A
O1985     Zr1995   2.434       .  S
O1985      C2004   1.286       .  A
O1986     Zr1994   2.425       .  S
O1986      C2005   1.283       .  A
O1987      C2004   1.287       .  A
O1988     Zr1996   2.388       .  S
O1988      C2003   1.274       .  A
O1989     Zr1994   2.396       .  S
O1989     Zr1996   2.385       .  S
O1990     Zr1995   2.392       .  S
O1990     Zr1996   2.379       .  S
O1990      H2025   0.966       .  S
O1991     Zr1994   2.403       .  S
O1991     Zr2011   2.383       .  S
O1991      H2028   0.960       .  S
O1992     Zr1995   2.388       .  S
O1992     Zr2011   2.382       .  S
Zr1993     O2018   2.442       .  S
Zr1993     O2012   2.460       .  S
Zr1993     O2020   2.445       .  S
Zr1993     O2008   2.471       .  S
Zr1993     O1999   2.408       .  S
Zr1993     O2000   2.409       .  S
Zr1993     O2001   2.383       .  S
Zr1993     O2002   2.388       .  S
Zr1994     O2013   2.433       .  S
Zr1994     O2006   2.436       .  S
Zr1994     O2007   2.426       .  S
Zr1994     O2000   2.400       .  S
Zr1994     O2001   2.398       .  S
Zr1995     O1997   2.435       .  S
Zr1995     O2019   2.436       .  S
Zr1995     O2021   2.430       .  S
Zr1995     O1999   2.392       .  S
Zr1995     O2002   2.391       .  S
Zr1996     O2022   2.440       .  S
Zr1996     O2023   2.436       .  S
Zr1996     O1998   2.436       .  S
Zr1996     O1999   2.381       .  S
Zr1996     O2000   2.384       .  S
O1997      H2034   0.990       .  S
O1998      H2029   0.990       .  S
O1998      H2043   0.990       .  S
O2000      H2026   0.963       .  S
O2001     Zr2011   2.386       .  S
O2002     Zr2011   2.374       .  S
O2002      H2027   0.969       .  S
C2003      C2120   1.463       .  S
C2004      C2372   1.481       .  S
C2005      C3059   1.480       .  S
O2006      H2042   0.990       .  S
O2007      C2009   1.284       .  A
O2008      C2009   1.289       .  A
C2009      C2519   1.481       .  S
O2010     Zr2011   2.435       .  S
O2010      H2039   0.990       .  S
Zr2011     O2014   2.437       .  S
Zr2011     O2015   2.440       .  S
Zr2011     O2016   2.397       .  S
O2012      C2017   1.287       .  A
O2013      H2030   0.990       .  S
O2013      H2045   0.990       .  S
O2014      H2031   0.990       .  S
O2015      H2035   0.990       .  S
O2015      H2044   0.990       .  S
O2016      C2017   1.277       .  A
C2017      C2138   1.473       .  S
O2018      H2037   0.991       .  S
O2018      H2041   0.990       .  S
O2019      H2033   0.990       .  S
O2019      H2040   0.990       .  S
O2020      C2024   1.286       .  A
O2021      C2024   1.285       .  A
O2022      H2032   0.990       .  S
O2023      H2036   0.990       .  S
C2024      C2213   1.473       .  S
Zr2047     O2048   2.443       .  S
Zr2047     O2049   2.454       .  S
Zr2047     O2050   2.468       .  S
Zr2047     O2053   2.459       .  S
Zr2047     O2055   2.385       .  S
Zr2047     O2056   2.397       .  S
Zr2047     O2057   2.415       .  S
Zr2047     O2058   2.399       .  S
O2048      H2104   0.990       .  S
O2048      H2112   0.991       .  S
O2049      C2069   1.286       .  A
O2050      C2071   1.289       .  A
O2051     Zr2061   2.430       .  S
O2051      C2070   1.285       .  A
O2052     Zr2060   2.421       .  S
O2052      C2071   1.282       .  A
O2053      C2070   1.289       .  A
O2054     Zr2062   2.390       .  S
O2054      C2069   1.275       .  A
O2055     Zr2060   2.392       .  S
O2055     Zr2062   2.381       .  S
O2056     Zr2061   2.396       .  S
O2056     Zr2062   2.381       .  S
O2056      H2091   0.969       .  S
O2057     Zr2060   2.402       .  S
O2057     Zr2077   2.382       .  S
O2057      H2094   0.961       .  S
O2058     Zr2061   2.384       .  S
O2058     Zr2077   2.376       .  S
Zr2059     O2084   2.443       .  S
Zr2059     O2078   2.444       .  S
Zr2059     O2086   2.448       .  S
Zr2059     O2074   2.461       .  S
Zr2059     O2065   2.402       .  S
Zr2059     O2066   2.407       .  S
Zr2059     O2067   2.387       .  S
Zr2059     O2068   2.390       .  S
Zr2060     O2079   2.436       .  S
Zr2060     O2072   2.437       .  S
Zr2060     O2073   2.429       .  S
Zr2060     O2066   2.397       .  S
Zr2060     O2067   2.396       .  S
Zr2061     O2063   2.436       .  S
Zr2061     O2085   2.437       .  S
Zr2061     O2087   2.435       .  S
Zr2061     O2065   2.389       .  S
Zr2061     O2068   2.392       .  S
Zr2062     O2088   2.437       .  S
Zr2062     O2089   2.434       .  S
Zr2062     O2064   2.437       .  S
Zr2062     O2065   2.384       .  S
Zr2062     O2066   2.376       .  S
O2063      H2100   0.990       .  S
O2064      H2095   0.990       .  S
O2064      H2109   0.990       .  S
O2066      H2092   0.964       .  S
O2067     Zr2077   2.386       .  S
O2068     Zr2077   2.381       .  S
O2068      H2093   0.970       .  S
C2069      C2141   1.468       .  S
C2070      C2303   1.477       .  S
C2071      C3023   1.478       .  S
O2072      H2108   0.990       .  S
O2073      C2075   1.284       .  A
O2074      C2075   1.287       .  A
C2075      C2483   1.478       .  S
O2076     Zr2077   2.439       .  S
O2076      H2105   0.990       .  S
Zr2077     O2080   2.436       .  S
Zr2077     O2081   2.440       .  S
Zr2077     O2082   2.395       .  S
O2078      C2083   1.285       .  A
O2079      H2096   0.990       .  S
O2079      H2111   0.990       .  S
O2080      H2097   0.990       .  S
O2081      H2101   0.990       .  S
O2081      H2110   0.990       .  S
O2082      C2083   1.277       .  A
C2083      C2123   1.465       .  S
O2084      H2103   0.991       .  S
O2084      H2107   0.990       .  S
O2085      H2099   0.990       .  S
O2085      H2106   0.990       .  S
O2086      C2090   1.286       .  A
O2087      C2090   1.285       .  A
O2088      H2098   0.990       .  S
O2089      H2102   0.990       .  S
C2090      C2159   1.478       .  S
C2113      C2118   1.385       .  A
C2113      C2114   1.402       .  A
C2113      N2119   1.337       .  A
C2114      C2115   1.399       .  A
C2114      H2125   1.082       .  S
C2115      C2124   1.378       .  A
C2115      C2116   1.384       .  A
C2116      C2117   1.401       .  A
C2116      N2122   1.337       .  A
C2117      C2118   1.398       .  A
C2117      H2126   1.082       .  S
C2118      C2121   1.378       .  A
N2119      C2120   1.356   1_556  A
N2119      H2129   1.045   1_556  S
C2120      C2121   1.393   1_554  A
C2121      H2127   1.082   1_556  S
N2122      C2123   1.355       .  A
N2122      H2130   1.045       .  S
C2123      C2124   1.394       .  A
C2124      H2128   1.082       .  S
C2131      C2136   1.384       .  A
C2131      C2132   1.403       .  A
C2131      N2137   1.338       .  A
C2132      C2133   1.399       .  A
C2132      H2143   1.082       .  S
C2133      C2142   1.381       .  A
C2133      C2134   1.384       .  A
C2134      C2135   1.405       .  A
C2134      N2140   1.339       .  A
C2135      C2136   1.402       .  A
C2135      H2144   1.082       .  S
C2136      C2139   1.383       .  A
N2137      C2138   1.356       .  A
N2137      H2147   1.045       .  S
C2138      C2139   1.396       .  A
C2139      H2145   1.082       .  S
N2140      C2141   1.357       .  A
N2140      H2148   1.045       .  S
C2141      C2142   1.393       .  A
C2142      H2146   1.082       .  S
C2149      C2154   1.384       .  A
C2149      C2150   1.407       .  A
C2149      N2155   1.347       .  A
C2150      C2151   1.407       .  A
C2150      H2161   1.082       .  S
C2151      C2160   1.383       .  A
C2151      C2152   1.384       .  A
C2152      C2153   1.402       .  A
C2152      N2158   1.343       .  A
C2153      C2154   1.401       .  A
C2153      H2162   1.082       .  S
C2154      C2157   1.376       .  A
N2155      C2156   1.357       .  A
N2155      H2165   1.045       .  S
C2156      C2157   1.395       .  A
C2157      H2163   1.083       .  S
N2158      C2159   1.355       .  A
N2158      H2166   1.045       .  S
C2159      C2160   1.399       .  A
C2160      H2164   1.082       .  S
C2167      C2172   1.385       .  A
C2167      C2168   1.402       .  A
C2167      N2173   1.347       .  A
C2168      C2169   1.404       .  A
C2168      H2179   1.082       .  S
C2169      C2178   1.371       .  A
C2169      C2170   1.385       .  A
C2170      C2171   1.399       .  A
C2170      N2176   1.346       .  A
C2171      C2172   1.402       .  A
C2171      H2180   1.082       .  S
C2172      C2175   1.370       .  A
N2173      C2174   1.355       .  A
N2173      H2183   1.045       .  S
C2174      C2175   1.396       .  A
C2175      H2181   1.083       .  S
N2176      C2177   1.354       .  A
N2176      H2184   1.045       .  S
C2177      C2178   1.397       .  A
C2178      H2182   1.083       .  S
C2185      C2190   1.385       .  A
C2185      C2186   1.402       .  A
C2185      N2191   1.345   1_554  A
C2186      C2187   1.403       .  A
C2186      H2197   1.083       .  S
C2187      C2196   1.372       .  A
C2187      C2188   1.386       .  A
C2188      C2189   1.398       .  A
C2188      N2194   1.343       .  A
C2189      C2190   1.399       .  A
C2189      H2198   1.082       .  S
C2190      C2193   1.369   1_554  A
N2191      C2192   1.356       .  A
N2191      H2201   1.045       .  S
C2192      C2193   1.393       .  A
C2193      H2199   1.083       .  S
N2194      C2195   1.353       .  A
N2194      H2202   1.045       .  S
C2195      C2196   1.397       .  A
C2196      H2200   1.083       .  S
C2203      C2208   1.384       .  A
C2203      C2204   1.402       .  A
C2203      N2209   1.343       .  A
C2204      C2205   1.401       .  A
C2204      H2215   1.082       .  S
C2205      C2214   1.376       .  A
C2205      C2206   1.384       .  A
C2206      C2207   1.409       .  A
C2206      N2212   1.348       .  A
C2207      C2208   1.409       .  A
C2207      H2216   1.082       .  S
C2208      C2211   1.385       .  A
N2209      C2210   1.356       .  A
N2209      H2219   1.045       .  S
C2210      C2211   1.400       .  A
C2211      H2217   1.082       .  S
N2212      C2213   1.358       .  A
N2212      H2220   1.045       .  S
C2213      C2214   1.393       .  A
C2214      H2218   1.083       .  S
C2221      C2226   1.384       .  A
C2221      C2222   1.409       .  A
C2221      N2227   1.349       .  A
C2222      C2223   1.409       .  A
C2222      H2233   1.082       .  S
C2223      C2232   1.386       .  A
C2223      C2224   1.384       .  A
C2224      C2225   1.403       .  A
C2224      N2230   1.343       .  A
C2225      C2226   1.402       .  A
C2225      H2234   1.083       .  S
C2226      C2229   1.377       .  A
N2227      C2228   1.358       .  A
N2227      H2237   1.044       .  S
C2228      C2229   1.396       .  A
C2229      H2235   1.083       .  S
N2230      C2231   1.356       .  A
N2230      H2238   1.045       .  S
C2231      C2232   1.399       .  A
C2232      H2236   1.082       .  S
C2239      C2244   1.385       .  A
C2239      C2240   1.401       .  A
C2239      N2245   1.345       .  A
C2240      C2241   1.402       .  A
C2240      H2251   1.082       .  S
C2241      C2250   1.371       .  A
C2241      C2242   1.385       .  A
C2242      C2243   1.404       .  A
C2242      N2248   1.348       .  A
C2243      C2244   1.406       .  A
C2243      H2252   1.082       .  S
C2244      C2247   1.377       .  A
N2245      C2246   1.355       .  A
N2245      H2255   1.045       .  S
C2246      C2247   1.399       .  A
C2247      H2253   1.082       .  S
N2248      C2249   1.356       .  A
N2248      H2256   1.045       .  S
C2249      C2250   1.396       .  A
C2250      H2254   1.083       .  S
C2257      C2262   1.385       .  A
C2257      C2258   1.403       .  A
C2257      N2263   1.339       .  A
C2258      C2259   1.400       .  A
C2258      H2269   1.082       .  S
C2259      C2268   1.380       .  A
C2259      C2260   1.385       .  A
C2260      C2261   1.399       .  A
C2260      N2266   1.335       .  A
C2261      C2262   1.396       .  A
C2261      H2270   1.083       .  S
C2262      C2265   1.376       .  A
N2263      C2264   1.356       .  A
N2263      H2273   1.045       .  S
C2264      C2265   1.392       .  A
C2265      H2271   1.082       .  S
N2266      C2267   1.355       .  A
N2266      H2274   1.045       .  S
C2267      C2268   1.394       .  A
C2268      H2272   1.082       .  S
C2275      C2280   1.384       .  A
C2275      C2276   1.406       .  A
C2275      N2281   1.345       .  A
C2276      C2277   1.404       .  A
C2276      H2287   1.082       .  S
C2277      C2286   1.383       .  A
C2277      C2278   1.384       .  A
C2278      C2279   1.405       .  A
C2278      N2284   1.342       .  A
C2279      C2280   1.403       .  A
C2279      H2288   1.082       .  S
C2280      C2283   1.381       .  A
N2281      C2282   1.356       .  A
N2281      H2291   1.045       .  S
C2282      C2283   1.397       .  A
C2283      H2289   1.082       .  S
N2284      C2285   1.357       .  A
N2284      H2292   1.045       .  S
C2285      C2286   1.396       .  A
C2286      H2290   1.082       .  S
C2293      C2298   1.384       .  A
C2293      C2294   1.409       .  A
C2293      N2299   1.349       .  A
C2294      C2295   1.409       .  A
C2294      H2305   1.082       .  S
C2295      C2304   1.386       .  A
C2295      C2296   1.384       .  A
C2296      C2297   1.402       .  A
C2296      N2302   1.342       .  A
C2297      C2298   1.402       .  A
C2297      H2306   1.082       .  S
C2298      C2301   1.378       .  A
N2299      C2300   1.358       .  A
N2299      H2309   1.045       .  S
C2300      C2301   1.397       .  A
C2301      H2307   1.083       .  S
N2302      C2303   1.355       .  A
N2302      H2310   1.045       .  S
C2303      C2304   1.399       .  A
C2304      H2308   1.082       .  S
C2311      C2316   1.384       .  A
C2311      C2312   1.407       .  A
C2311      N2317   1.348       .  A
C2312      C2313   1.407       .  A
C2312      H2323   1.082       .  S
C2313      C2322   1.382       .  A
C2313      C2314   1.384       .  A
C2314      C2315   1.403       .  A
C2314      N2320   1.344       .  A
C2315      C2316   1.403       .  A
C2315      H2324   1.082       .  S
C2316      C2319   1.377       .  A
N2317      C2318   1.358       .  A
N2317      H2327   1.045       .  S
C2318      C2319   1.397       .  A
C2319      H2325   1.083       .  S
N2320      C2321   1.356       .  A
N2320      H2328   1.045       .  S
C2321      C2322   1.397       .  A
C2322      H2326   1.082       .  S
C2329      C2334   1.385       .  A
C2329      C2330   1.399       .  A
C2329      N2335   1.345       .  A
C2330      C2331   1.401       .  A
C2330      H2341   1.082       .  S
C2331      C2340   1.369       .  A
C2331      C2332   1.385       .  A
C2332      C2333   1.403       .  A
C2332      N2338   1.348       .  A
C2333      C2334   1.405       .  A
C2333      H2342   1.082       .  S
C2334      C2337   1.373       .  A
N2335      C2336   1.354       .  A
N2335      H2345   1.045       .  S
C2336      C2337   1.398       .  A
C2337      H2343   1.083       .  S
N2338      C2339   1.356       .  A
N2338      H2346   1.045       .  S
C2339      C2340   1.396       .  A
C2340      H2344   1.083       .  S
C2347      C2352   1.384       .  A
C2347      C2348   1.404       .  A
C2347      N2353   1.338       .  A
C2348      C2349   1.401       .  A
C2348      H2359   1.082       .  S
C2349      C2358   1.382       .  A
C2349      C2350   1.384       .  A
C2350      C2351   1.399       .  A
C2350      N2356   1.335       .  A
C2351      C2352   1.396       .  A
C2351      H2360   1.082       .  S
C2352      C2355   1.377       .  A
N2353      C2354   1.357       .  A
N2353      H2363   1.045       .  S
C2354      C2355   1.392       .  A
C2355      H2361   1.082       .  S
N2356      C2357   1.354       .  A
N2356      H2364   1.045       .  S
C2357      C2358   1.395       .  A
C2358      H2362   1.082       .  S
C2365      C2370   1.384       .  A
C2365      C2366   1.411       .  A
C2365      N2371   1.349       .  A
C2366      C2367   1.410       .  A
C2366      H2377   1.082       .  S
C2367      C2376   1.387       .  A
C2367      C2368   1.384       .  A
C2368      C2369   1.402       .  A
C2368      N2374   1.342       .  A
C2369      C2370   1.401       .  A
C2369      H2378   1.082       .  S
C2370      C2373   1.377       .  A
N2371      C2372   1.360       .  A
N2371      H2381   1.045       .  S
C2372      C2373   1.395       .  A
C2373      H2379   1.082       .  S
N2374      C2375   1.355       .  A
N2374      H2382   1.045       .  S
C2375      C2376   1.400       .  A
C2376      H2380   1.082       .  S
C2383      C2388   1.384   1_554  A
C2383      C2384   1.404       .  A
C2383      N2389   1.343       .  A
C2384      C2385   1.402   1_554  A
C2384      H2395   1.082       .  S
C2385      C2394   1.379       .  A
C2385      C2386   1.384       .  A
C2386      C2387   1.407       .  A
C2386      N2392   1.346       .  A
C2387      C2388   1.406       .  A
C2387      H2396   1.082       .  S
C2388      C2391   1.383   1_556  A
N2389      C2390   1.356       .  A
N2389      H2399   1.045       .  S
C2390      C2391   1.399       .  A
C2391      H2397   1.082       .  S
N2392      C2393   1.357       .  A
N2392      H2400   1.045       .  S
C2393      C2394   1.395       .  A
C2394      H2398   1.083       .  S
C2401      C2406   1.384       .  A
C2401      C2402   1.400       .  A
C2401      N2407   1.340       .  A
C2402      C2403   1.399       .  A
C2402      H2413   1.083       .  S
C2403      C2412   1.374       .  A
C2403      C2404   1.384       .  A
C2404      C2405   1.412       .  A
C2404      N2410   1.351       .  A
C2405      C2406   1.411       .  A
C2405      H2414   1.082       .  S
C2406      C2409   1.389       .  A
N2407      C2408   1.355       .  A
N2407      H2417   1.045       .  S
C2408      C2409   1.400       .  A
C2409      H2415   1.082       .  S
N2410      C2411   1.360       .  A
N2410      H2418   1.044       .  S
C2411      C2412   1.396       .  A
C2412      H2416   1.083       .  S
C2419      C2424   1.384       .  A
C2419      C2420   1.402       .  A
C2419      N2425   1.341       .  A
C2420      C2421   1.401       .  A
C2420      H2431   1.082       .  S
C2421      C2430   1.377       .  A
C2421      C2422   1.384       .  A
C2422      C2423   1.411       .  A
C2422      N2428   1.349       .  A
C2423      C2424   1.409       .  A
C2423      H2432   1.082       .  S
C2424      C2427   1.388       .  A
N2425      C2426   1.356       .  A
N2425      H2435   1.045       .  S
C2426      C2427   1.400       .  A
C2427      H2433   1.082       .  S
N2428      C2429   1.359       .  A
N2428      H2436   1.045       .  S
C2429      C2430   1.396       .  A
C2430      H2434   1.083       .  S
C2437      C2442   1.384       .  A
C2437      C2438   1.401       .  A
C2437      N2443   1.337       .  A
C2438      C2439   1.398       .  A
C2438      H2449   1.082       .  S
C2439      C2448   1.378       .  A
C2439      C2440   1.384       .  A
C2440      C2441   1.404       .  A
C2440      N2446   1.340       .  A
C2441      C2442   1.401       .  A
C2441      H2450   1.082       .  S
C2442      C2445   1.381       .  A
N2443      C2444   1.355       .  A
N2443      H2453   1.045       .  S
C2444      C2445   1.394       .  A
C2445      H2451   1.082       .  S
N2446      C2447   1.357       .  A
N2446      H2454   1.045       .  S
C2447      C2448   1.393       .  A
C2448      H2452   1.082       .  S
C2455      C2460   1.384       .  A
C2455      C2456   1.401       .  A
C2455      N2461   1.337       .  A
C2456      C2457   1.398       .  A
C2456      H2467   1.082       .  S
C2457      C2466   1.378   1_554  A
C2457      C2458   1.384       .  A
C2458      C2459   1.404       .  A
C2458      N2464   1.339   1_554  A
C2459      C2460   1.401       .  A
C2459      H2468   1.082       .  S
C2460      C2463   1.382       .  A
N2461      C2462   1.355       .  A
N2461      H2471   1.045       .  S
C2462      C2463   1.395       .  A
C2463      H2469   1.082       .  S
N2464      C2465   1.357       .  A
N2464      H2472   1.045       .  S
C2465      C2466   1.393       .  A
C2466      H2470   1.082       .  S
C2473      C2478   1.384       .  A
C2473      C2474   1.411       .  A
C2473      N2479   1.352       .  A
C2474      C2475   1.412       .  A
C2474      H2485   1.082       .  S
C2475      C2484   1.386       .  A
C2475      C2476   1.384       .  A
C2476      C2477   1.398       .  A
C2476      N2482   1.341       .  A
C2477      C2478   1.397       .  A
C2477      H2486   1.083       .  S
C2478      C2481   1.369       .  A
N2479      C2480   1.360       .  A
N2479      H2489   1.045       .  S
C2480      C2481   1.393       .  A
C2481      H2487   1.083       .  S
N2482      C2483   1.354       .  A
N2482      H2490   1.045       .  S
C2483      C2484   1.401       .  A
C2484      H2488   1.082       .  S
C2491      C2496   1.384       .  A
C2491      C2492   1.405       .  A
C2491      N2497   1.346       .  A
C2492      C2493   1.405       .  A
C2492      H2503   1.082       .  S
C2493      C2502   1.380       .  A
C2493      C2494   1.383       .  A
C2494      C2495   1.408       .  A
C2494      N2500   1.348       .  A
C2495      C2496   1.408       .  A
C2495      H2504   1.082       .  S
C2496      C2499   1.383       .  A
N2497      C2498   1.357       .  A
N2497      H2507   1.045       .  S
C2498      C2499   1.399       .  A
C2499      H2505   1.082       .  S
N2500      C2501   1.358       .  A
N2500      H2508   1.045       .  S
C2501      C2502   1.397       .  A
C2502      H2506   1.082       .  S
C2509      C2514   1.384       .  A
C2509      C2510   1.403       .  A
C2509      N2515   1.341       .  A
C2510      C2511   1.401       .  A
C2510      H2521   1.083       .  S
C2511      C2520   1.377       .  A
C2511      C2512   1.384       .  A
C2512      C2513   1.411       .  A
C2512      N2518   1.349       .  A
C2513      C2514   1.410       .  A
C2513      H2522   1.082       .  S
C2514      C2517   1.389       .  A
N2515      C2516   1.356       .  A
N2515      H2525   1.045       .  S
C2516      C2517   1.400       .  A
C2517      H2523   1.082       .  S
N2518      C2519   1.359       .  A
N2518      H2526   1.045       .  S
C2519      C2520   1.396       .  A
C2520      H2524   1.083       .  S
C2527      C2532   1.384       .  A
C2527      C2528   1.402       .  A
C2527      N2533   1.338   1_556  A
C2528      C2529   1.399       .  A
C2528      H2539   1.082       .  S
C2529      C2538   1.380       .  A
C2529      C2530   1.384       .  A
C2530      C2531   1.405       .  A
C2530      N2536   1.339       .  A
C2531      C2532   1.402       .  A
C2531      H2540   1.082       .  S
C2532      C2535   1.382       .  A
N2533      C2534   1.356       .  A
N2533      H2543   1.045       .  S
C2534      C2535   1.396   1_554  A
C2535      H2541   1.082   1_556  S
N2536      C2537   1.357       .  A
N2536      H2544   1.045       .  S
C2537      C2538   1.393       .  A
C2538      H2542   1.082       .  S
C2545      C2550   1.385       .  A
C2545      C2546   1.399       .  A
C2545      N2551   1.345       .  A
C2546      C2547   1.401       .  A
C2546      H2557   1.082       .  S
C2547      C2556   1.369       .  A
C2547      C2548   1.385       .  A
C2548      C2549   1.400       .  A
C2548      N2554   1.345       .  A
C2549      C2550   1.401       .  A
C2549      H2558   1.082       .  S
C2550      C2553   1.369       .  A
N2551      C2552   1.354       .  A
N2551      H2561   1.045       .  S
C2552      C2553   1.396       .  A
C2553      H2559   1.083       .  S
N2554      C2555   1.354       .  A
N2554      H2562   1.045       .  S
C2555      C2556   1.396       .  A
C2556      H2560   1.083       .  S
C2563      C2568   1.384       .  A
C2563      C2564   1.406       .  A
C2563      N2569   1.345       .  A
C2564      C2565   1.405       .  A
C2564      H2575   1.082       .  S
C2565      C2574   1.382       .  A
C2565      C2566   1.384       .  A
C2566      C2567   1.405       .  A
C2566      N2572   1.344       .  A
C2567      C2568   1.404       .  A
C2567      H2576   1.082       .  S
C2568      C2571   1.381       .  A
N2569      C2570   1.357       .  A
N2569      H2579   1.045       .  S
C2570      C2571   1.397       .  A
C2571      H2577   1.082       .  S
N2572      C2573   1.357       .  A
N2572      H2580   1.045       .  S
C2573      C2574   1.398       .  A
C2574      H2578   1.083       .  S
C2581      C2586   1.383       .  A
C2581      C2582   1.411   1_455  A
C2581      N2587   1.351       .  A
C2582      C2583   1.410       .  A
C2582      H2593   1.082   1_655  S
C2583      C2592   1.388       .  A
C2583      C2584   1.383       .  A
C2584      C2585   1.402       .  A
C2584      N2590   1.342       .  A
C2585      C2586   1.401   1_655  A
C2585      H2594   1.083       .  S
C2586      C2589   1.376       .  A
N2587      C2588   1.360       .  A
N2587      H2597   1.045       .  S
C2588      C2589   1.396       .  A
C2589      H2595   1.083       .  S
N2590      C2591   1.357       .  A
N2590      H2598   1.045       .  S
C2591      C2592   1.400       .  A
C2592      H2596   1.082       .  S
C2599      C2604   1.384       .  A
C2599      C2600   1.402       .  A
C2599      N2605   1.344       .  A
C2600      C2601   1.402       .  A
C2600      H2611   1.082       .  S
C2601      C2610   1.375       .  A
C2601      C2602   1.384       .  A
C2602      C2603   1.409       .  A
C2602      N2608   1.350       .  A
C2603      C2604   1.409       .  A
C2603      H2612   1.082       .  S
C2604      C2607   1.382       .  A
N2605      C2606   1.356       .  A
N2605      H2615   1.045       .  S
C2606      C2607   1.398       .  A
C2607      H2613   1.082       .  S
N2608      C2609   1.359       .  A
N2608      H2616   1.045       .  S
C2609      C2610   1.395       .  A
C2610      H2614   1.082       .  S
C2617      C2622   1.384       .  A
C2617      C2618   1.402       .  A
C2617      N2623   1.341       .  A
C2618      C2619   1.400   1_655  A
C2618      H2629   1.082       .  S
C2619      C2628   1.377       .  A
C2619      C2620   1.384   1_554  A
C2620      C2621   1.409       .  A
C2620      N2626   1.347   1_556  A
C2621      C2622   1.408   1_456  A
C2621      H2630   1.082       .  S
C2622      C2625   1.387       .  A
N2623      C2624   1.355       .  A
N2623      H2633   1.045       .  S
C2624      C2625   1.399       .  A
C2625      H2631   1.082       .  S
N2626      C2627   1.358       .  A
N2626      H2634   1.045   1_554  S
C2627      C2628   1.395       .  A
C2628      H2632   1.083       .  S
C2635      C2640   1.385       .  A
C2635      C2636   1.400       .  A
C2635      N2641   1.344       .  A
C2636      C2637   1.401       .  A
C2636      H2647   1.082       .  S
C2637      C2646   1.371       .  A
C2637      C2638   1.386       .  A
C2638      C2639   1.397       .  A
C2638      N2644   1.341       .  A
C2639      C2640   1.398       .  A
C2639      H2648   1.082       .  S
C2640      C2643   1.368       .  A
N2641      C2642   1.354       .  A
N2641      H2651   1.045       .  S
C2642      C2643   1.393       .  A
C2643      H2649   1.083       .  S
N2644      C2645   1.352       .  A
N2644      H2652   1.045       .  S
C2645      C2646   1.395       .  A
C2646      H2650   1.083       .  S
C2653      C2658   1.385       .  A
C2653      C2654   1.401       .  A
C2653      N2659   1.346       .  A
C2654      C2655   1.403       .  A
C2654      H2665   1.082       .  S
C2655      C2664   1.373       .  A
C2655      C2656   1.385       .  A
C2656      C2657   1.402       .  A
C2656      N2662   1.345       .  A
C2657      C2658   1.403       .  A
C2657      H2666   1.082       .  S
C2658      C2661   1.373       .  A
N2659      C2660   1.354       .  A
N2659      H2669   1.045       .  S
C2660      C2661   1.398       .  A
C2661      H2667   1.083       .  S
N2662      C2663   1.355       .  A
N2662      H2670   1.045       .  S
C2663      C2664   1.396       .  A
C2664      H2668   1.083       .  S
C2671      C2676   1.384       .  A
C2671      C2672   1.402       .  A
C2671      N2677   1.343       .  A
C2672      C2673   1.402       .  A
C2672      H2683   1.082       .  S
C2673      C2682   1.376       .  A
C2673      C2674   1.384       .  A
C2674      C2675   1.405       .  A
C2674      N2680   1.346       .  A
C2675      C2676   1.405       .  A
C2675      H2684   1.082       .  S
C2676      C2679   1.379       .  A
N2677      C2678   1.355       .  A
N2677      H2687   1.045       .  S
C2678      C2679   1.396       .  A
C2679      H2685   1.083       .  S
N2680      C2681   1.357       .  A
N2680      H2688   1.045       .  S
C2681      C2682   1.396       .  A
C2682      H2686   1.082       .  S
C2689      C2694   1.383       .  A
C2689      C2690   1.411   1_556  A
C2689      N2695   1.352       .  A
C2690      C2691   1.411   1_655  A
C2690      H2701   1.082       .  S
C2691      C2700   1.387       .  A
C2691      C2692   1.384   1_554  A
C2692      C2693   1.402       .  A
C2692      N2698   1.343       .  A
C2693      C2694   1.402   1_455  A
C2693      H2702   1.083       .  S
C2694      C2697   1.375       .  A
N2695      C2696   1.359       .  A
N2695      H2705   1.044   1_556  S
C2696      C2697   1.398       .  A
C2697      H2703   1.083       .  S
N2698      C2699   1.356       .  A
N2698      H2706   1.045       .  S
C2699      C2700   1.400   1_556  A
C2700      H2704   1.082       .  S
C2707      C2712   1.384       .  A
C2707      C2708   1.407       .  A
C2707      N2713   1.346       .  A
C2708      C2709   1.405       .  A
C2708      H2719   1.082       .  S
C2709      C2718   1.384       .  A
C2709      C2710   1.383       .  A
C2710      C2711   1.407       .  A
C2710      N2716   1.344       .  A
C2711      C2712   1.406       .  A
C2711      H2720   1.082       .  S
C2712      C2715   1.384       .  A
N2713      C2714   1.356       .  A
N2713      H2723   1.045       .  S
C2714      C2715   1.399       .  A
C2715      H2721   1.082       .  S
N2716      C2717   1.358       .  A
N2716      H2724   1.045       .  S
C2717      C2718   1.398       .  A
C2718      H2722   1.082       .  S
C2725      C2730   1.384       .  A
C2725      C2726   1.405       .  A
C2725      N2731   1.343       .  A
C2726      C2727   1.403       .  A
C2726      H2737   1.082       .  S
C2727      C2736   1.381       .  A
C2727      C2728   1.384       .  A
C2728      C2729   1.406       .  A
C2728      N2734   1.344       .  A
C2729      C2730   1.405       .  A
C2729      H2738   1.082       .  S
C2730      C2733   1.383       .  A
N2731      C2732   1.357       .  A
N2731      H2741   1.045       .  S
C2732      C2733   1.398       .  A
C2733      H2739   1.082       .  S
N2734      C2735   1.356       .  A
N2734      H2742   1.045   1_556  S
C2735      C2736   1.396       .  A
C2736      H2740   1.082       .  S
C2743      C2748   1.384       .  A
C2743      C2744   1.404       .  A
C2743      N2749   1.344       .  A
C2744      C2745   1.403   1_655  A
C2744      H2755   1.082       .  S
C2745      C2754   1.379       .  A
C2745      C2746   1.384       .  A
C2746      C2747   1.410       .  A
C2746      N2752   1.349       .  A
C2747      C2748   1.409   1_455  A
C2747      H2756   1.082       .  S
C2748      C2751   1.387       .  A
N2749      C2750   1.357       .  A
N2749      H2759   1.045       .  S
C2750      C2751   1.400       .  A
C2751      H2757   1.082       .  S
N2752      C2753   1.359       .  A
N2752      H2760   1.045       .  S
C2753      C2754   1.397       .  A
C2754      H2758   1.083       .  S
C2761      C2766   1.386       .  A
C2761      C2762   1.398       .  A
C2761      N2767   1.343       .  A
C2762      C2763   1.400       .  A
C2762      H2773   1.082       .  S
C2763      C2772   1.369       .  A
C2763      C2764   1.385       .  A
C2764      C2765   1.399       .  A
C2764      N2770   1.344       .  A
C2765      C2766   1.401       .  A
C2765      H2774   1.082       .  S
C2766      C2769   1.369       .  A
N2767      C2768   1.353       .  A
N2767      H2777   1.045       .  S
C2768      C2769   1.395       .  A
C2769      H2775   1.083       .  S
N2770      C2771   1.354       .  A
N2770      H2778   1.045       .  S
C2771      C2772   1.395       .  A
C2772      H2776   1.083       .  S
C2779      C2784   1.384       .  A
C2779      C2780   1.403       .  A
C2779      N2785   1.340       .  A
C2780      C2781   1.400       .  A
C2780      H2791   1.082       .  S
C2781      C2790   1.381       .  A
C2781      C2782   1.384       .  A
C2782      C2783   1.404       .  A
C2782      N2788   1.340       .  A
C2783      C2784   1.402       .  A
C2783      H2792   1.082       .  S
C2784      C2787   1.382       .  A
N2785      C2786   1.356       .  A
N2785      H2795   1.045       .  S
C2786      C2787   1.396       .  A
C2787      H2793   1.082       .  S
N2788      C2789   1.357       .  A
N2788      H2796   1.045       .  S
C2789      C2790   1.394       .  A
C2790      H2794   1.082       .  S
C2797      C2802   1.384       .  A
C2797      C2798   1.407       .  A
C2797      N2803   1.346       .  A
C2798      C2799   1.406       .  A
C2798      H2809   1.082       .  S
C2799      C2808   1.382       .  A
C2799      C2800   1.384       .  A
C2800      C2801   1.406       .  A
C2800      N2806   1.347       .  A
C2801      C2802   1.405       .  A
C2801      H2810   1.082       .  S
C2802      C2805   1.382       .  A
N2803      C2804   1.358       .  A
N2803      H2813   1.045       .  S
C2804      C2805   1.397       .  A
C2805      H2811   1.082       .  S
N2806      C2807   1.357       .  A
N2806      H2814   1.045       .  S
C2807      C2808   1.399       .  A
C2808      H2812   1.082       .  S
C2815      C2820   1.384       .  A
C2815      C2816   1.404       .  A
C2815      N2821   1.343       .  A
C2816      C2817   1.403       .  A
C2816      H2827   1.082       .  S
C2817      C2826   1.379       .  A
C2817      C2818   1.384       .  A
C2818      C2819   1.404       .  A
C2818      N2824   1.344       .  A
C2819      C2820   1.403       .  A
C2819      H2828   1.082       .  S
C2820      C2823   1.380       .  A
N2821      C2822   1.357       .  A
N2821      H2831   1.045       .  S
C2822      C2823   1.396       .  A
C2823      H2829   1.082       .  S
N2824      C2825   1.355       .  A
N2824      H2832   1.045       .  S
C2825      C2826   1.397       .  A
C2826      H2830   1.083       .  S
C2833      C2838   1.384       .  A
C2833      C2834   1.410       .  A
C2833      N2839   1.351       .  A
C2834      C2835   1.410       .  A
C2834      H2845   1.082       .  S
C2835      C2844   1.386       .  A
C2835      C2836   1.384       .  A
C2836      C2837   1.403       .  A
C2836      N2842   1.344       .  A
C2837      C2838   1.403       .  A
C2837      H2846   1.083       .  S
C2838      C2841   1.376       .  A
N2839      C2840   1.359       .  A
N2839      H2849   1.044       .  S
C2840      C2841   1.398       .  A
C2841      H2847   1.083       .  S
N2842      C2843   1.357       .  A
N2842      H2850   1.045       .  S
C2843      C2844   1.400       .  A
C2844      H2848   1.082       .  S
C2851      C2856   1.384       .  A
C2851      C2852   1.402       .  A
C2851      N2857   1.345       .  A
C2852      C2853   1.402       .  A
C2852      H2863   1.083       .  S
C2853      C2862   1.374       .  A
C2853      C2854   1.384       .  A
C2854      C2855   1.410       .  A
C2854      N2860   1.351       .  A
C2855      C2856   1.410       .  A
C2855      H2864   1.082       .  S
C2856      C2859   1.385       .  A
N2857      C2858   1.357       .  A
N2857      H2867   1.045       .  S
C2858      C2859   1.400       .  A
C2859      H2865   1.082       .  S
N2860      C2861   1.359       .  A
N2860      H2868   1.045       .  S
C2861      C2862   1.395       .  A
C2862      H2866   1.083       .  S
C2869      C2874   1.384       .  A
C2869      C2870   1.402       .  A
C2869      N2875   1.337       .  A
C2870      C2871   1.398       .  A
C2870      H2881   1.082       .  S
C2871      C2880   1.379       .  A
C2871      C2872   1.384       .  A
C2872      C2873   1.403       .  A
C2872      N2878   1.338       .  A
C2873      C2874   1.399       .  A
C2873      H2882   1.082       .  S
C2874      C2877   1.380       .  A
N2875      C2876   1.356       .  A
N2875      H2885   1.045       .  S
C2876      C2877   1.394       .  A
C2877      H2883   1.082       .  S
N2878      C2879   1.357       .  A
N2878      H2886   1.045       .  S
C2879      C2880   1.393       .  A
C2880      H2884   1.082       .  S
C2887      C2892   1.384       .  A
C2887      C2888   1.402       .  A
C2887      N2893   1.338       .  A
C2888      C2889   1.399       .  A
C2888      H2899   1.082       .  S
C2889      C2898   1.380       .  A
C2889      C2890   1.384       .  A
C2890      C2891   1.404       .  A
C2890      N2896   1.338       .  A
C2891      C2892   1.400       .  A
C2891      H2900   1.082       .  S
C2892      C2895   1.382       .  A
N2893      C2894   1.356       .  A
N2893      H2903   1.045       .  S
C2894      C2895   1.395       .  A
C2895      H2901   1.082       .  S
N2896      C2897   1.357       .  A
N2896      H2904   1.045       .  S
C2897      C2898   1.393       .  A
C2898      H2902   1.082       .  S
C2905      C2910   1.383       .  A
C2905      C2906   1.401       .  A
C2905      N2911   1.340       .  A
C2906      C2907   1.400       .  A
C2906      H2917   1.083       .  S
C2907      C2916   1.375       .  A
C2907      C2908   1.383       .  A
C2908      C2909   1.411       .  A
C2908      N2914   1.350       .  A
C2909      C2910   1.410       .  A
C2909      H2918   1.082       .  S
C2910      C2913   1.390       .  A
N2911      C2912   1.357       .  A
N2911      H2921   1.045       .  S
C2912      C2913   1.400       .  A
C2913      H2919   1.082       .  S
N2914      C2915   1.359       .  A
N2914      H2922   1.044       .  S
C2915      C2916   1.396       .  A
C2916      H2920   1.083       .  S
C2923      C2928   1.384       .  A
C2923      C2924   1.408       .  A
C2923      N2929   1.349       .  A
C2924      C2925   1.408       .  A
C2924      H2935   1.082       .  S
C2925      C2934   1.383       .  A
C2925      C2926   1.384       .  A
C2926      C2927   1.405       .  A
C2926      N2932   1.346       .  A
C2927      C2928   1.405       .  A
C2927      H2936   1.082       .  S
C2928      C2931   1.379       .  A
N2929      C2930   1.358       .  A
N2929      H2939   1.045       .  S
C2930      C2931   1.398       .  A
C2931      H2937   1.083       .  S
N2932      C2933   1.356       .  A
N2932      H2940   1.045       .  S
C2933      C2934   1.398       .  A
C2934      H2938   1.082       .  S
C2941      C2946   1.384       .  A
C2941      C2942   1.409       .  A
C2941      N2947   1.349       .  A
C2942      C2943   1.409       .  A
C2942      H2953   1.082       .  S
C2943      C2952   1.385       .  A
C2943      C2944   1.384       .  A
C2944      C2945   1.401       .  A
C2944      N2950   1.341       .  A
C2945      C2946   1.399       .  A
C2945      H2954   1.083       .  S
C2946      C2949   1.373       .  A
N2947      C2948   1.359       .  A
N2947      H2957   1.045       .  S
C2948      C2949   1.395       .  A
C2949      H2955   1.083       .  S
N2950      C2951   1.356       .  A
N2950      H2958   1.045       .  S
C2951      C2952   1.399       .  A
C2952      H2956   1.082       .  S
C2959      C2964   1.385       .  A
C2959      C2960   1.402       .  A
C2959      N2965   1.338       .  A
C2960      C2961   1.398       .  A
C2960      H2971   1.082       .  S
C2961      C2970   1.378       .  A
C2961      C2962   1.385       .  A
C2962      C2963   1.401       .  A
C2962      N2968   1.337       .  A
C2963      C2964   1.398       .  A
C2963      H2972   1.082       .  S
C2964      C2967   1.378       .  A
N2965      C2966   1.355       .  A
N2965      H2975   1.045       .  S
C2966      C2967   1.394       .  A
C2967      H2973   1.083       .  S
N2968      C2969   1.355       .  A
N2968      H2976   1.045       .  S
C2969      C2970   1.394       .  A
C2970      H2974   1.082       .  S
C2977      C2982   1.384       .  A
C2977      C2978   1.405       .  A
C2977      N2983   1.340       .  A
C2978      C2979   1.401       .  A
C2978      H2989   1.082       .  S
C2979      C2988   1.381       .  A
C2979      C2980   1.384       .  A
C2980      C2981   1.402       .  A
C2980      N2986   1.339       .  A
C2981      C2982   1.400       .  A
C2981      H2990   1.082       .  S
C2982      C2985   1.380       .  A
N2983      C2984   1.358   1_554  A
N2983      H2993   1.045   1_554  S
C2984      C2985   1.394   1_556  A
C2985      H2991   1.082   1_554  S
N2986      C2987   1.355       .  A
N2986      H2994   1.045       .  S
C2987      C2988   1.395       .  A
C2988      H2992   1.082       .  S
C2995      C3000   1.385       .  A
C2995      C2996   1.401       .  A
C2995      N3001   1.343       .  A
C2996      C2997   1.401       .  A
C2996      H3007   1.082       .  S
C2997      C3006   1.375       .  A
C2997      C2998   1.384       .  A
C2998      C2999   1.406       .  A
C2998      N3004   1.346       .  A
C2999      C3000   1.405       .  A
C2999      H3008   1.082       .  S
C3000      C3003   1.379       .  A
N3001      C3002   1.354       .  A
N3001      H3011   1.045       .  S
C3002      C3003   1.396       .  A
C3003      H3009   1.083       .  S
N3004      C3005   1.358       .  A
N3004      H3012   1.045       .  S
C3005      C3006   1.395       .  A
C3006      H3010   1.083       .  S
C3013      C3018   1.384       .  A
C3013      C3014   1.408       .  A
C3013      N3019   1.349       .  A
C3014      C3015   1.407       .  A
C3014      H3025   1.082       .  S
C3015      C3024   1.384       .  A
C3015      C3016   1.384       .  A
C3016      C3017   1.403       .  A
C3016      N3022   1.343       .  A
C3017      C3018   1.403       .  A
C3017      H3026   1.083       .  S
C3018      C3021   1.377       .  A
N3019      C3020   1.358       .  A
N3019      H3029   1.045       .  S
C3020      C3021   1.398       .  A
C3021      H3027   1.083       .  S
N3022      C3023   1.357       .  A
N3022      H3030   1.045       .  S
C3023      C3024   1.398       .  A
C3024      H3028   1.082       .  S
C3031      C3036   1.384       .  A
C3031      C3032   1.407       .  A
C3031      N3037   1.346       .  A
C3032      C3033   1.406   1_565  A
C3032      H3043   1.082       .  S
C3033      C3042   1.382       .  A
C3033      C3034   1.384       .  A
C3034      C3035   1.403       .  A
C3034      N3040   1.344       .  A
C3035      C3036   1.403   1_545  A
C3035      H3044   1.082       .  S
C3036      C3039   1.378       .  A
N3037      C3038   1.358       .  A
N3037      H3047   1.045       .  S
C3038      C3039   1.396       .  A
C3039      H3045   1.082       .  S
N3040      C3041   1.355       .  A
N3040      H3048   1.045       .  S
C3041      C3042   1.398       .  A
C3042      H3046   1.082       .  S
C3049      C3054   1.384       .  A
C3049      C3050   1.401       .  A
C3049      N3055   1.341       .  A
C3050      C3051   1.401       .  A
C3050      H3061   1.083       .  S
C3051      C3060   1.374       .  A
C3051      C3052   1.384       .  A
C3052      C3053   1.409       .  A
C3052      N3058   1.350       .  A
C3053      C3054   1.408       .  A
C3053      H3062   1.082       .  S
C3054      C3057   1.385       .  A
N3055      C3056   1.356       .  A
N3055      H3065   1.045       .  S
C3056      C3057   1.398       .  A
C3057      H3063   1.082       .  S
N3058      C3059   1.359       .  A
N3058      H3066   1.045       .  S
C3059      C3060   1.396       .  A
C3060      H3064   1.083       .  S
C3067      C3072   1.384       .  A
C3067      C3068   1.404       .  A
C3067      N3073   1.338   1_556  A
C3068      C3069   1.401       .  A
C3068      H3079   1.082       .  S
C3069      C3078   1.382       .  A
C3069      C3070   1.384       .  A
C3070      C3071   1.404       .  A
C3070      N3076   1.339       .  A
C3071      C3072   1.400       .  A
C3071      H3080   1.082       .  S
C3072      C3075   1.381   1_556  A
N3073      C3074   1.357       .  A
N3073      H3083   1.045       .  S
C3074      C3075   1.394       .  A
C3075      H3081   1.082       .  S
N3076      C3077   1.357       .  A
N3076      H3084   1.045       .  S
C3077      C3078   1.395       .  A
C3078      H3082   1.082       .  S
C3085      C3090   1.384       .  A
C3085      C3086   1.402       .  A
C3085      N3091   1.337       .  A
C3086      C3087   1.398       .  A
C3086      H3097   1.082       .  S
C3087      C3096   1.379       .  A
C3087      C3088   1.384       .  A
C3088      C3089   1.402       .  A
C3088      N3094   1.336       .  A
C3089      C3090   1.399       .  A
C3089      H3098   1.082       .  S
C3090      C3093   1.381       .  A
N3091      C3092   1.356       .  A
N3091      H3101   1.045       .  S
C3092      C3093   1.395       .  A
C3093      H3099   1.082       .  S
N3094      C3095   1.355       .  A
N3094      H3102   1.045       .  S
C3095      C3096   1.393       .  A
C3096      H3100   1.082       .  S
C3103      C3108   1.384       .  A
C3103      C3104   1.408   1_565  A
C3103      N3109   1.349       .  A
C3104      C3105   1.408       .  A
C3104      H3115   1.082       .  S
C3105      C3114   1.382       .  A
C3105      C3106   1.384       .  A
C3106      C3107   1.404       .  A
C3106      N3112   1.346       .  A
C3107      C3108   1.404   1_545  A
C3107      H3116   1.082       .  S
C3108      C3111   1.378       .  A
N3109      C3110   1.359       .  A
N3109      H3119   1.045       .  S
C3110      C3111   1.396       .  A
C3111      H3117   1.082       .  S
N3112      C3113   1.356       .  A
N3112      H3120   1.045       .  S
C3113      C3114   1.398       .  A
C3114      H3118   1.082       .  S
C3121      C3126   1.384       .  A
C3121      C3122   1.408       .  A
C3121      N3127   1.351       .  A
C3122      C3123   1.409       .  A
C3122      H3133   1.082       .  S
C3123      C3132   1.384       .  A
C3123      C3124   1.384       .  A
C3124      C3125   1.403       .  A
C3124      N3130   1.345       .  A
C3125      C3126   1.403       .  A
C3125      H3134   1.083       .  S
C3126      C3129   1.375       .  A
N3127      C3128   1.358       .  A
N3127      H3137   1.044       .  S
C3128      C3129   1.398       .  A
C3129      H3135   1.083       .  S
N3130      C3131   1.357       .  A
N3130      H3138   1.045       .  S
C3131      C3132   1.399       .  A
C3132      H3136   1.082       .  S
C3139      C3144   1.384       .  A
C3139      C3140   1.408       .  A
C3139      N3145   1.347       .  A
C3140      C3141   1.408   1_565  A
C3140      H3151   1.082       .  S
C3141      C3150   1.382       .  A
C3141      C3142   1.384       .  A
C3142      C3143   1.403       .  A
C3142      N3148   1.345       .  A
C3143      C3144   1.403   1_545  A
C3143      H3152   1.082       .  S
C3144      C3147   1.379       .  A
N3145      C3146   1.359       .  A
N3145      H3155   1.045       .  S
C3146      C3147   1.395       .  A
C3147      H3153   1.082       .  S
N3148      C3149   1.355       .  A
N3148      H3156   1.045       .  S
C3149      C3150   1.400       .  A
C3150      H3154   1.082       .  S
C3157      C3162   1.384       .  A
C3157      C3158   1.407       .  A
C3157      N3163   1.347       .  A
C3158      C3159   1.407       .  A
C3158      H3169   1.082       .  S
C3159      C3168   1.382       .  A
C3159      C3160   1.384       .  A
C3160      C3161   1.402       .  A
C3160      N3166   1.343       .  A
C3161      C3162   1.401       .  A
C3161      H3170   1.082       .  S
C3162      C3165   1.375       .  A
N3163      C3164   1.357       .  A
N3163      H3173   1.045       .  S
C3164      C3165   1.395       .  A
C3165      H3171   1.083       .  S
N3166      C3167   1.355       .  A
N3166      H3174   1.045       .  S
C3167      C3168   1.398       .  A
C3168      H3172   1.082       .  S
C3175      C3180   1.383       .  A
C3175      C3176   1.410       .  A
C3175      N3181   1.351       .  A
C3176      C3177   1.410       .  A
C3176      H3187   1.082       .  S
C3177      C3186   1.386       .  A
C3177      C3178   1.384       .  A
C3178      C3179   1.401       .  A
C3178      N3184   1.342       .  A
C3179      C3180   1.401       .  A
C3179      H3188   1.083       .  S
C3180      C3183   1.374       .  A
N3181      C3182   1.360       .  A
N3181      H3191   1.044       .  S
C3182      C3183   1.396       .  A
C3183      H3189   1.083       .  S
N3184      C3185   1.356       .  A
N3184      H3192   1.045       .  S
C3185      C3186   1.400       .  A
C3186      H3190   1.082       .  S
C3193      C3198   1.384       .  A
C3193      C3194   1.404       .  A
C3193      N3199   1.340       .  A
C3194      C3195   1.401       .  A
C3194      H3205   1.082       .  S
C3195      C3204   1.381       .  A
C3195      C3196   1.384       .  A
C3196      C3197   1.404       .  A
C3196      N3202   1.339       .  A
C3197      C3198   1.401       .  A
C3197      H3206   1.082       .  S
C3198      C3201   1.382       .  A
N3199      C3200   1.357       .  A
N3199      H3209   1.045       .  S
C3200      C3201   1.395       .  A
C3201      H3207   1.082       .  S
N3202      C3203   1.357       .  A
N3202      H3210   1.045       .  S
C3203      C3204   1.395       .  A
C3204      H3208   1.082       .  S
C3211      C3216   1.386       .  A
C3211      C3212   1.399       .  A
C3211      N3217   1.344       .  A
C3212      C3213   1.401       .  A
C3212      H3223   1.083       .  S
C3213      C3222   1.367       .  A
C3213      C3214   1.386       .  A
C3214      C3215   1.397       .  A
C3214      N3220   1.343       .  A
C3215      C3216   1.400       .  A
C3215      H3224   1.082       .  S
C3216      C3219   1.368       .  A
N3217      C3218   1.354       .  A
N3217      H3227   1.045       .  S
C3218      C3219   1.395       .  A
C3219      H3225   1.083       .  S
N3220      C3221   1.352       .  A
N3220      H3228   1.045       .  S
C3221      C3222   1.396       .  A
C3222      H3226   1.083       .  S
C3229      C3234   1.383   1_556  A
C3229      C3230   1.408   1_545  A
C3229      N3235   1.347       .  A
C3230      C3231   1.407   1_556  A
C3230      H3241   1.082       .  S
C3231      C3240   1.383       .  A
C3231      C3232   1.384       .  A
C3232      C3233   1.406       .  A
C3232      N3238   1.346       .  A
C3233      C3234   1.406   1_565  A
C3233      H3242   1.082       .  S
C3234      C3237   1.383   1_554  A
N3235      C3236   1.358       .  A
N3235      H3245   1.045       .  S
C3236      C3237   1.398       .  A
C3237      H3243   1.082       .  S
N3238      C3239   1.356       .  A
N3238      H3246   1.045       .  S
C3239      C3240   1.399       .  A
C3240      H3244   1.083       .  S
C3247      C3252   1.384       .  A
C3247      C3248   1.405       .  A
C3247      N3253   1.345       .  A
C3248      C3249   1.404       .  A
C3248      H3259   1.082       .  S
C3249      C3258   1.380       .  A
C3249      C3250   1.384       .  A
C3250      C3251   1.409       .  A
C3250      N3256   1.349       .  A
C3251      C3252   1.409       .  A
C3251      H3260   1.082       .  S
C3252      C3255   1.385       .  A
N3253      C3254   1.357       .  A
N3253      H3263   1.045       .  S
C3254      C3255   1.399       .  A
C3255      H3261   1.082       .  S
N3256      C3257   1.359       .  A
N3256      H3264   1.045       .  S
C3257      C3258   1.396       .  A
C3258      H3262   1.082       .  S
C3265      C3270   1.384       .  A
C3265      C3266   1.401       .  A
C3265      N3271   1.340       .  A
C3266      C3267   1.399       .  A
C3266      H3277   1.083       .  S
C3267      C3276   1.375       .  A
C3267      C3268   1.384       .  A
C3268      C3269   1.411       .  A
C3268      N3274   1.349       .  A
C3269      C3270   1.409       .  A
C3269      H3278   1.082       .  S
C3270      C3273   1.389       .  A
N3271      C3272   1.356       .  A
N3271      H3281   1.045       .  S
C3272      C3273   1.400       .  A
C3273      H3279   1.082       .  S
N3274      C3275   1.359       .  A
N3274      H3282   1.045       .  S
C3275      C3276   1.396       .  A
C3276      H3280   1.083       .  S
C3283      C3288   1.384       .  A
C3283      C3284   1.409       .  A
C3283      N3289   1.349       .  A
C3284      C3285   1.409       .  A
C3284      H3295   1.082       .  S
C3285      C3294   1.385       .  A
C3285      C3286   1.384       .  A
C3286      C3287   1.402       .  A
C3286      N3292   1.343       .  A
C3287      C3288   1.402       .  A
C3287      H3296   1.082       .  S
C3288      C3291   1.376       .  A
N3289      C3290   1.358       .  A
N3289      H3299   1.045       .  S
C3290      C3291   1.396       .  A
C3291      H3297   1.083       .  S
N3292      C3293   1.356       .  A
N3292      H3300   1.045       .  S
C3293      C3294   1.399       .  A
C3294      H3298   1.082       .  S
C3301      C3306   1.384       .  A
C3301      C3302   1.412       .  A
C3301      N3307   1.352       .  A
C3302      C3303   1.411       .  A
C3302      H3313   1.082       .  S
C3303      C3312   1.388       .  A
C3303      C3304   1.384       .  A
C3304      C3305   1.403       .  A
C3304      N3310   1.344       .  A
C3305      C3306   1.402       .  A
C3305      H3314   1.083       .  S
C3306      C3309   1.377       .  A
N3307      C3308   1.361       .  A
N3307      H3317   1.045       .  S
C3308      C3309   1.396       .  A
C3309      H3315   1.083       .  S
N3310      C3311   1.357       .  A
N3310      H3318   1.045       .  S
C3311      C3312   1.400       .  A
C3312      H3316   1.082       .  S
C3319      C3324   1.383       .  A
C3319      C3320   1.412       .  A
C3319      N3325   1.353       .  A
C3320      C3321   1.412       .  A
C3320      H3331   1.082       .  S
C3321      C3330   1.388       .  A
C3321      C3322   1.384       .  A
C3322      C3323   1.402       .  A
C3322      N3328   1.343       .  A
C3323      C3324   1.401       .  A
C3323      H3332   1.083       .  S
C3324      C3327   1.375       .  A
N3325      C3326   1.361       .  A
N3325      H3335   1.044       .  S
C3326      C3327   1.396       .  A
C3327      H3333   1.083       .  S
N3328      C3329   1.356       .  A
N3328      H3336   1.045       .  S
C3329      C3330   1.401       .  A
C3330      H3334   1.082       .  S
C3337      C3342   1.385       .  A
C3337      C3338   1.400       .  A
C3337      N3343   1.344       .  A
C3338      C3339   1.401       .  A
C3338      H3349   1.082       .  S
C3339      C3348   1.371       .  A
C3339      C3340   1.385       .  A
C3340      C3341   1.400       .  A
C3340      N3346   1.344       .  A
C3341      C3342   1.401       .  A
C3341      H3350   1.082       .  S
C3342      C3345   1.371       .  A
N3343      C3344   1.354       .  A
N3343      H3353   1.045       .  S
C3344      C3345   1.396       .  A
C3345      H3351   1.083       .  S
N3346      C3347   1.354       .  A
N3346      H3354   1.045       .  S
C3347      C3348   1.395       .  A
C3348      H3352   1.083       .  S
C3355      C3360   1.385       .  A
C3355      C3356   1.401       .  A
C3355      N3361   1.346       .  A
C3356      C3357   1.402       .  A
C3356      H3367   1.082       .  S
C3357      C3366   1.371   1_554  A
C3357      C3358   1.385       .  A
C3358      C3359   1.399       .  A
C3358      N3364   1.344   1_554  A
C3359      C3360   1.401       .  A
C3359      H3368   1.082       .  S
C3360      C3363   1.370       .  A
N3361      C3362   1.355       .  A
N3361      H3371   1.045       .  S
C3362      C3363   1.395       .  A
C3363      H3369   1.083       .  S
N3364      C3365   1.353       .  A
N3364      H3372   1.045       .  S
C3365      C3366   1.396       .  A
C3366      H3370   1.083       .  S
C3373      C3378   1.384   1_554  A
C3373      C3374   1.411       .  A
C3373      N3379   1.350       .  A
C3374      C3375   1.410   1_655  A
C3374      H3385   1.082       .  S
C3375      C3384   1.387       .  A
C3375      C3376   1.384   1_554  A
C3376      C3377   1.399       .  A
C3376      N3382   1.339       .  A
C3377      C3378   1.398   1_455  A
C3377      H3386   1.083       .  S
C3378      C3381   1.373       .  A
N3379      C3380   1.360   1_554  A
N3379      H3389   1.045       .  S
C3380      C3381   1.394       .  A
C3381      H3387   1.083       .  S
N3382      C3383   1.355       .  A
N3382      H3390   1.045       .  S
C3383      C3384   1.399   1_556  A
C3384      H3388   1.082       .  S
C3391      C3396   1.384       .  A
C3391      C3392   1.402       .  A
C3391      N3397   1.342       .  A
C3392      C3393   1.401       .  A
C3392      H3403   1.083       .  S
C3393      C3402   1.375       .  A
C3393      C3394   1.383       .  A
C3394      C3395   1.411       .  A
C3394      N3400   1.351       .  A
C3395      C3396   1.411       .  A
C3395      H3404   1.082       .  S
C3396      C3399   1.389       .  A
N3397      C3398   1.356       .  A
N3397      H3407   1.045       .  S
C3398      C3399   1.401       .  A
C3399      H3405   1.082       .  S
N3400      C3401   1.359       .  A
N3400      H3408   1.044       .  S
C3401      C3402   1.397       .  A
C3402      H3406   1.083       .  S
C3409      C3414   1.384       .  A
C3409      C3410   1.409       .  A
C3409      N3415   1.349       .  A
C3410      C3411   1.408       .  A
C3410      H3421   1.082       .  S
C3411      C3420   1.385       .  A
C3411      C3412   1.384       .  A
C3412      C3413   1.404       .  A
C3412      N3418   1.344       .  A
C3413      C3414   1.404       .  A
C3413      H3422   1.082       .  S
C3414      C3417   1.379       .  A
N3415      C3416   1.359       .  A
N3415      H3425   1.045       .  S
C3416      C3417   1.397       .  A
C3417      H3423   1.082       .  S
N3418      C3419   1.357       .  A
N3418      H3426   1.045       .  S
C3419      C3420   1.398       .  A
C3420      H3424   1.082       .  S
C3427      C3432   1.384       .  A
C3427      C3428   1.399       .  A
C3427      N3433   1.339       .  A
C3428      C3429   1.398   1_655  A
C3428      H3439   1.083       .  S
C3429      C3438   1.373       .  A
C3429      C3430   1.384       .  A
C3430      C3431   1.410       .  A
C3430      N3436   1.349       .  A
C3431      C3432   1.410   1_455  A
C3431      H3440   1.082       .  S
C3432      C3435   1.387       .  A
N3433      C3434   1.354       .  A
N3433      H3443   1.045       .  S
C3434      C3435   1.401       .  A
C3435      H3441   1.082       .  S
N3436      C3437   1.359       .  A
N3436      H3444   1.044       .  S
C3437      C3438   1.394       .  A
C3438      H3442   1.083       .  S
C3445      C3450   1.383       .  A
C3445      C3446   1.411       .  A
C3445      N3451   1.348       .  A
C3446      C3447   1.410       .  A
C3446      H3457   1.082       .  S
C3447      C3456   1.389       .  A
C3447      C3448   1.383       .  A
C3448      C3449   1.402       .  A
C3448      N3454   1.341       .  A
C3449      C3450   1.400       .  A
C3449      H3458   1.083       .  S
C3450      C3453   1.377       .  A
N3451      C3452   1.360       .  A
N3451      H3461   1.045       .  S
C3452      C3453   1.395       .  A
C3453      H3459   1.083       .  S
N3454      C3455   1.357       .  A
N3454      H3462   1.045       .  S
C3455      C3456   1.400       .  A
C3456      H3460   1.082       .  S
C3463      C3468   1.385       .  A
C3463      C3464   1.400       .  A
C3463      N3469   1.344       .  A
C3464      C3465   1.401       .  A
C3464      H3475   1.083       .  S
C3465      C3474   1.370       .  A
C3465      C3466   1.385       .  A
C3466      C3467   1.399       .  A
C3466      N3472   1.344       .  A
C3467      C3468   1.401       .  A
C3467      H3476   1.082       .  S
C3468      C3471   1.370       .  A
N3469      C3470   1.354       .  A
N3469      H3479   1.045       .  S
C3470      C3471   1.395       .  A
C3471      H3477   1.083       .  S
N3472      C3473   1.353       .  A
N3472      H3480   1.045       .  S
C3473      C3474   1.396       .  A
C3474      H3478   1.083       .  S
C3481      C3486   1.384       .  A
C3481      C3482   1.402       .  A
C3481      N3487   1.339       .  A
C3482      C3483   1.400       .  A
C3482      H3493   1.082       .  S
C3483      C3492   1.379       .  A
C3483      C3484   1.384       .  A
C3484      C3485   1.404       .  A
C3484      N3490   1.341       .  A
C3485      C3486   1.401       .  A
C3485      H3494   1.082       .  S
C3486      C3489   1.380       .  A
N3487      C3488   1.355       .  A
N3487      H3497   1.045       .  S
C3488      C3489   1.395       .  A
C3489      H3495   1.082       .  S
N3490      C3491   1.356       .  A
N3490      H3498   1.045       .  S
C3491      C3492   1.395       .  A
C3492      H3496   1.082       .  S
C3499      C3504   1.383       .  A
C3499      C3500   1.413       .  A
C3499      N3505   1.352       .  A
C3500      C3501   1.413       .  A
C3500      H3511   1.082       .  S
C3501      C3510   1.390       .  A
C3501      C3502   1.383       .  A
C3502      C3503   1.406       .  A
C3502      N3508   1.346       .  A
C3503      C3504   1.404       .  A
C3503      H3512   1.082       .  S
C3504      C3507   1.380       .  A
N3505      C3506   1.360       .  A
N3505      H3515   1.045       .  S
C3506      C3507   1.396       .  A
C3507      H3513   1.082       .  S
N3508      C3509   1.358       .  A
N3508      H3516   1.045       .  S
C3509      C3510   1.403       .  A
C3510      H3514   1.082       .  S
C3517      C3522   1.384       .  A
C3517      C3518   1.403       .  A
C3517      N3523   1.344       .  A
C3518      C3519   1.403       .  A
C3518      H3529   1.083       .  S
C3519      C3528   1.375       .  A
C3519      C3520   1.384       .  A
C3520      C3521   1.411       .  A
C3520      N3526   1.352       .  A
C3521      C3522   1.411       .  A
C3521      H3530   1.082       .  S
C3522      C3525   1.386       .  A
N3523      C3524   1.357       .  A
N3523      H3533   1.045       .  S
C3524      C3525   1.400       .  A
C3525      H3531   1.082       .  S
N3526      C3527   1.360       .  A
N3526      H3534   1.044       .  S
C3527      C3528   1.397       .  A
C3528      H3532   1.083       .  S
C3535      C3540   1.384       .  A
C3535      C3536   1.411       .  A
C3535      N3541   1.349       .  A
C3536      C3537   1.410   1_655  A
C3536      H3547   1.082       .  S
C3537      C3546   1.388       .  A
C3537      C3538   1.384       .  A
C3538      C3539   1.402       .  A
C3538      N3544   1.341       .  A
C3539      C3540   1.400   1_455  A
C3539      H3548   1.083       .  S
C3540      C3543   1.375       .  A
N3541      C3542   1.359       .  A
N3541      H3551   1.045       .  S
C3542      C3543   1.395       .  A
C3543      H3549   1.083       .  S
N3544      C3545   1.356       .  A
N3544      H3552   1.045       .  S
C3545      C3546   1.400       .  A
C3546      H3550   1.082       .  S
C3553      C3558   1.384       .  A
C3553      C3554   1.406       .  A
C3553      N3559   1.347       .  A
C3554      C3555   1.406   1_565  A
C3554      H3565   1.082       .  S
C3555      C3564   1.381       .  A
C3555      C3556   1.384       .  A
C3556      C3557   1.403       .  A
C3556      N3562   1.344       .  A
C3557      C3558   1.403   1_545  A
C3557      H3566   1.082       .  S
C3558      C3561   1.376       .  A
N3559      C3560   1.357       .  A
N3559      H3569   1.045       .  S
C3560      C3561   1.397       .  A
C3561      H3567   1.083       .  S
N3562      C3563   1.355       .  A
N3562      H3570   1.045       .  S
C3563      C3564   1.397       .  A
C3564      H3568   1.082       .  S
C3571      C3576   1.384       .  A
C3571      C3572   1.411       .  A
C3571      N3577   1.349       .  A
C3572      C3573   1.410       .  A
C3572      H3583   1.082       .  S
C3573      C3582   1.389       .  A
C3573      C3574   1.384       .  A
C3574      C3575   1.400       .  A
C3574      N3580   1.340       .  A
C3575      C3576   1.398       .  A
C3575      H3584   1.083       .  S
C3576      C3579   1.374       .  A
N3577      C3578   1.359       .  A
N3577      H3587   1.045       .  S
C3578      C3579   1.394       .  A
C3579      H3585   1.083       .  S
N3580      C3581   1.355       .  A
N3580      H3588   1.045       .  S
C3581      C3582   1.401       .  A
C3582      H3586   1.082       .  S
C3589      C3594   1.384   1_554  A
C3589      C3590   1.400       .  A
C3589      N3595   1.341       .  A
C3590      C3591   1.399   1_655  A
C3590      H3601   1.083       .  S
C3591      C3600   1.373       .  A
C3591      C3592   1.384       .  A
C3592      C3593   1.410   1_454  A
C3592      N3598   1.350       .  A
C3593      C3594   1.409       .  A
C3593      H3602   1.082   1_655  S
C3594      C3597   1.386       .  A
N3595      C3596   1.355       .  A
N3595      H3605   1.043       .  S
C3596      C3597   1.400   1_554  A
C3597      H3603   1.082       .  S
N3598      C3599   1.359       .  A
N3598      H3606   1.045   1_554  S
C3599      C3600   1.395       .  A
C3600      H3604   1.083       .  S
C3607      C3612   1.384       .  A
C3607      C3608   1.403       .  A
C3607      N3613   1.338       .  A
C3608      C3609   1.400       .  A
C3608      H3619   1.082       .  S
C3609      C3618   1.381       .  A
C3609      C3610   1.384       .  A
C3610      C3611   1.402       .  A
C3610      N3616   1.338       .  A
C3611      C3612   1.398       .  A
C3611      H3620   1.082       .  S
C3612      C3615   1.379       .  A
N3613      C3614   1.356       .  A
N3613      H3623   1.045       .  S
C3614      C3615   1.393       .  A
C3615      H3621   1.082       .  S
N3616      C3617   1.356       .  A
N3616      H3624   1.045       .  S
C3617      C3618   1.394       .  A
C3618      H3622   1.082       .  S
C3625      C3630   1.384       .  A
C3625      C3626   1.402       .  A
C3625      N3631   1.338       .  A
C3626      C3627   1.399       .  A
C3626      H3637   1.082       .  S
C3627      C3636   1.380       .  A
C3627      C3628   1.384       .  A
C3628      C3629   1.403       .  A
C3628      N3634   1.338       .  A
C3629      C3630   1.400       .  A
C3629      H3638   1.082       .  S
C3630      C3633   1.381       .  A
N3631      C3632   1.356       .  A
N3631      H3641   1.045       .  S
C3632      C3633   1.395       .  A
C3633      H3639   1.082       .  S
N3634      C3635   1.357       .  A
N3634      H3642   1.045       .  S
C3635      C3636   1.393       .  A
C3636      H3640   1.082       .  S
C3643      C3648   1.384       .  A
C3643      C3644   1.408       .  A
C3643      N3649   1.347       .  A
C3644      C3645   1.407   1_564  A
C3644      H3655   1.082       .  S
C3645      C3654   1.383       .  A
C3645      C3646   1.384       .  A
C3646      C3647   1.402       .  A
C3646      N3652   1.343       .  A
C3647      C3648   1.402   1_546  A
C3647      H3656   1.082       .  S
C3648      C3651   1.378       .  A
N3649      C3650   1.358       .  A
N3649      H3659   1.045       .  S
C3650      C3651   1.395       .  A
C3651      H3657   1.082       .  S
N3652      C3653   1.355       .  A
N3652      H3660   1.045       .  S
C3653      C3654   1.398       .  A
C3654      H3658   1.082       .  S
C3661      C3666   1.384       .  A
C3661      C3662   1.402       .  A
C3661      N3667   1.342       .  A
C3662      C3663   1.401       .  A
C3662      H3673   1.083       .  S
C3663      C3672   1.374       .  A
C3663      C3664   1.384       .  A
C3664      C3665   1.409       .  A
C3664      N3670   1.350       .  A
C3665      C3666   1.408       .  A
C3665      H3674   1.082       .  S
C3666      C3669   1.385       .  A
N3667      C3668   1.357       .  A
N3667      H3677   1.045       .  S
C3668      C3669   1.398       .  A
C3669      H3675   1.082       .  S
N3670      C3671   1.358       .  A
N3670      H3678   1.044       .  S
C3671      C3672   1.396       .  A
C3672      H3676   1.083       .  S
C3679      C3684   1.384       .  A
C3679      C3680   1.410       .  A
C3679      N3685   1.348       .  A
C3680      C3681   1.409       .  A
C3680      H3691   1.082       .  S
C3681      C3690   1.387       .  A
C3681      C3682   1.384       .  A
C3682      C3683   1.401       .  A
C3682      N3688   1.340       .  A
C3683      C3684   1.399       .  A
C3683      H3692   1.083       .  S
C3684      C3687   1.375       .  A
N3685      C3686   1.359       .  A
N3685      H3695   1.045       .  S
C3686      C3687   1.394       .  A
C3687      H3693   1.083       .  S
N3688      C3689   1.355       .  A
N3688      H3696   1.045       .  S
C3689      C3690   1.399       .  A
C3690      H3694   1.082       .  S
C3697      C3702   1.384       .  A
C3697      C3698   1.403   1_565  A
C3697      N3703   1.343       .  A
C3698      C3699   1.402       .  A
C3698      H3709   1.082       .  S
C3699      C3708   1.377       .  A
C3699      C3700   1.384       .  A
C3700      C3701   1.410       .  A
C3700      N3706   1.350       .  A
C3701      C3702   1.410   1_545  A
C3701      H3710   1.082       .  S
C3702      C3705   1.386       .  A
N3703      C3704   1.356       .  A
N3703      H3713   1.045       .  S
C3704      C3705   1.400       .  A
C3705      H3711   1.082       .  S
N3706      C3707   1.359       .  A
N3706      H3714   1.045       .  S
C3707      C3708   1.396       .  A
C3708      H3712   1.083       .  S
C3715      C3720   1.384       .  A
C3715      C3716   1.402       .  A
C3715      N3721   1.343       .  A
C3716      C3717   1.403       .  A
C3716      H3727   1.082       .  S
C3717      C3726   1.377       .  A
C3717      C3718   1.384       .  A
C3718      C3719   1.406       .  A
C3718      N3724   1.348       .  A
C3719      C3720   1.405       .  A
C3719      H3728   1.082       .  S
C3720      C3723   1.381       .  A
N3721      C3722   1.356       .  A
N3721      H3731   1.045       .  S
C3722      C3723   1.396       .  A
C3723      H3729   1.082       .  S
N3724      C3725   1.357       .  A
N3724      H3732   1.044       .  S
C3725      C3726   1.397       .  A
C3726      H3730   1.083       .  S
C3733      C3738   1.384       .  A
C3733      C3734   1.404       .  A
C3733      N3739   1.344       .  A
C3734      C3735   1.403       .  A
C3734      H3745   1.083       .  S
C3735      C3744   1.376       .  A
C3735      C3736   1.384       .  A
C3736      C3737   1.407       .  A
C3736      N3742   1.349       .  A
C3737      C3738   1.408       .  A
C3737      H3746   1.082       .  S
C3738      C3741   1.384       .  A
N3739      C3740   1.358       .  A
N3739      H3749   1.045       .  S
C3740      C3741   1.398       .  A
C3741      H3747   1.082       .  S
N3742      C3743   1.357       .  A
N3742      H3750   1.045       .  S
C3743      C3744   1.397       .  A
C3744      H3748   1.083       .  S
C3751      C3756   1.383       .  A
C3751      C3752   1.404       .  A
C3751      N3757   1.343       .  A
C3752      C3753   1.403       .  A
C3752      H3763   1.082       .  S
C3753      C3762   1.379       .  A
C3753      C3754   1.384       .  A
C3754      C3755   1.411       .  A
C3754      N3760   1.350       .  A
C3755      C3756   1.410       .  A
C3755      H3764   1.082       .  S
C3756      C3759   1.388       .  A
N3757      C3758   1.357       .  A
N3757      H3767   1.045       .  S
C3758      C3759   1.400       .  A
C3759      H3765   1.082       .  S
N3760      C3761   1.359       .  A
N3760      H3768   1.045       .  S
C3761      C3762   1.397       .  A
C3762      H3766   1.083       .  S
C3769      C3774   1.385       .  A
C3769      C3770   1.400       .  A
C3769      N3775   1.344       .  A
C3770      C3771   1.401       .  A
C3770      H3781   1.082       .  S
C3771      C3780   1.370       .  A
C3771      C3772   1.385       .  A
C3772      C3773   1.400       .  A
C3772      N3778   1.344       .  A
C3773      C3774   1.401       .  A
C3773      H3782   1.082       .  S
C3774      C3777   1.372       .  A
N3775      C3776   1.355   1_556  A
N3775      H3785   1.045   1_556  S
C3776      C3777   1.395   1_554  A
C3777      H3783   1.083   1_556  S
N3778      C3779   1.353       .  A
N3778      H3786   1.045       .  S
C3779      C3780   1.395       .  A
C3780      H3784   1.083       .  S
C3787      C3792   1.384       .  A
C3787      C3788   1.404       .  A
C3787      N3793   1.342       .  A
C3788      C3789   1.402       .  A
C3788      H3799   1.082       .  S
C3789      C3798   1.380       .  A
C3789      C3790   1.384       .  A
C3790      C3791   1.402       .  A
C3790      N3796   1.340       .  A
C3791      C3792   1.400       .  A
C3791      H3800   1.082       .  S
C3792      C3795   1.378       .  A
N3793      C3794   1.357       .  A
N3793      H3803   1.045       .  S
C3794      C3795   1.394       .  A
C3795      H3801   1.082       .  S
N3796      C3797   1.356       .  A
N3796      H3804   1.045       .  S
C3797      C3798   1.395       .  A
C3798      H3802   1.082       .  S
C3805      C3810   1.384       .  A
C3805      C3806   1.409       .  A
C3805      N3811   1.348       .  A
C3806      C3807   1.408   1_545  A
C3806      H3817   1.082       .  S
C3807      C3816   1.385       .  A
C3807      C3808   1.384       .  A
C3808      C3809   1.404   1_565  A
C3808      N3814   1.343       .  A
C3809      C3810   1.402       .  A
C3809      H3818   1.082       .  S
C3810      C3813   1.378       .  A
N3811      C3812   1.358       .  A
N3811      H3821   1.045       .  S
C3812      C3813   1.395       .  A
C3813      H3819   1.082       .  S
N3814      C3815   1.357       .  A
N3814      H3822   1.045       .  S
C3815      C3816   1.399       .  A
C3816      H3820   1.082       .  S
C3823      C3828   1.384       .  A
C3823      C3824   1.409       .  A
C3823      N3829   1.349       .  A
C3824      C3825   1.408       .  A
C3824      H3835   1.082       .  S
C3825      C3834   1.385       .  A
C3825      C3826   1.384       .  A
C3826      C3827   1.402       .  A
C3826      N3832   1.342       .  A
C3827      C3828   1.402       .  A
C3827      H3836   1.082       .  S
C3828      C3831   1.377       .  A
N3829      C3830   1.358       .  A
N3829      H3839   1.045       .  S
C3830      C3831   1.396       .  A
C3831      H3837   1.083       .  S
N3832      C3833   1.356       .  A
N3832      H3840   1.045       .  S
C3833      C3834   1.399       .  A
C3834      H3838   1.082       .  S
