geometry optimzed in LAMMPS
_audit_creation_date              2020-11-30 
_audit_creation_method            'lammps2cif' 
_symmetry_space_group_name_H-M    'P1' 
_symmetry_Int_Tables_number       1 
_symmetry_cell_setting            triclinic 
loop_ 
_symmetry_equiv_pos_as_xyz 
  x,y,z 
_cell_length_a                    69.26589473 
_cell_length_b                    28.08372242563357 
_cell_length_c                    29.6414623761663 
_cell_angle_alpha                 89.8927932409652 
_cell_angle_beta                  90.24367670909388 
_cell_angle_gamma                 89.3953118381799 
loop_ 
_atom_site_label 
_atom_site_type_symbol 
_atom_site_fract_x 
_atom_site_fract_y 
_atom_site_fract_z 
_atom_site_charge 
C1          C  0.10362293  0.27135670  0.75074461     0.02400
C2          C  0.10279006  0.22108806  0.75458528     0.02300
C3          C  0.11563248  0.19700010  0.78383687    -0.18200
C4          C  0.12929968  0.22177854  0.80954118     0.02400
C5          C  0.12981134  0.27206422  0.80677007     0.02300
C6          C  0.11696386  0.29599819  0.77750334    -0.18200
H7          H  0.11755911  0.33447269  0.77505533     0.04400
H8          H  0.11525275  0.15846305  0.78588371     0.04400
O9          O  0.00724044  0.07324123  0.51199583    -0.74400
O10         O  0.97037430  0.01285978  0.43424567    -0.74400
O11         O  0.96852331  0.07864521  0.50207750    -0.74400
O12         O  0.00936035  0.00812747  0.44480439    -0.74500
O13         O  0.00541757  0.94878335  0.49402985    -0.74400
O14         O  0.96524615  0.02023338  0.55260006    -0.74400
O15         O  0.96657436  0.95524197  0.48535412    -0.74400
O16         O  0.00405639  0.01411322  0.56182461    -0.74400
Ni17       Ni  0.98896653  0.04527573  0.47138531     1.25400
Ni18       Ni  0.98523162  0.98249699  0.52521102     1.25400
C19         C  0.01153434  0.05363565  0.54980427     0.87800
C20         C  0.96240311  0.97419636  0.44720979     0.87800
C21         C  0.96046409  0.06135370  0.53723213     0.87800
C22         C  0.01399545  0.96677857  0.45989708     0.88000
O23         O  0.96989978  0.44741837  0.50413965    -0.74400
O24         O  0.01138082  0.50956691  0.44327926    -0.74400
O25         O  0.00916823  0.44217055  0.50905897    -0.74400
O26         O  0.97246731  0.51466196  0.43854866    -0.74500
O27         O  0.97214746  0.57129689  0.49113919    -0.74400
O28         O  0.00885362  0.49944211  0.56095135    -0.74400
O29         O  0.01112478  0.56640213  0.49569352    -0.74400
O30         O  0.96999247  0.50440513  0.55637093    -0.74400
Ni31       Ni  0.99073597  0.47633545  0.47189101     1.25400
Ni32       Ni  0.99053866  0.53735071  0.52784707     1.25400
C33         C  0.96309999  0.46581652  0.54037777     0.87800
C34         C  0.01796654  0.54851215  0.45935588     0.87800
C35         C  0.01505388  0.45898086  0.54686857     0.87800
C36         C  0.96629874  0.55497022  0.45319476     0.88000
C37         C  0.11797744  0.73314452  0.29535511     0.02400
C38         C  0.11643134  0.78364028  0.29479689     0.02300
C39         C  0.12972574  0.80947549  0.26898644    -0.18200
C40         C  0.14409878  0.78670974  0.24322584     0.02400
C41         C  0.14527327  0.73628375  0.24333867     0.02300
C42         C  0.13237136  0.71041449  0.26984102    -0.18200
H43         H  0.13325111  0.67182672  0.26979884     0.04400
H44         H  0.12871457  0.84799844  0.26835435     0.04400
C45         C  0.72549709  0.46295901  0.04846884     0.86600
C46         C  0.71311277  0.49244904  0.01567316    -0.53700
C47         C  0.72318601  0.52220637  0.98813190     0.09500
C48         C  0.74528665  0.51926436  0.99569638     0.20400
C49         C  0.74024615  0.43698588  0.01868960    -0.54400
C50         C  0.75061696  0.46598305  0.99102194     0.09600
C51         C  0.73750042  0.50037301  0.07393470    -0.53900
C52         C  0.74791545  0.52960665  0.04649583     0.10200
H53         H  0.69748276  0.48978661  0.01449118     0.14700
H54         H  0.75373346  0.54319375  0.97359046     0.00400
H55         H  0.74217650  0.39854461  0.01921603     0.15000
H56         H  0.73842683  0.50362904  0.11022629     0.14800
C57         C  0.75552383  0.03406576  0.96641208     0.86600
C58         C  0.74242001  0.00550994  0.93471418    -0.53700
C59         C  0.72974207  0.97619409  0.95619860     0.09500
C60         C  0.73118033  0.97848255  0.00817384     0.20400
C61         C  0.74171776  0.06042458  0.99834593    -0.54400
C62         C  0.72897025  0.03168499  0.02010917     0.09600
C63         C  0.76515179  0.99611100  0.99664256    -0.53900
C64         C  0.75254563  0.96704727  0.01818323     0.10200
H65         H  0.74332294  0.00788567  0.89820108     0.14700
H66         H  0.72101639  0.95477616  0.02612125     0.00400
H67         H  0.74202457  0.09871926  0.00339532     0.15000
H68         H  0.78049718  0.99202891  0.00241766     0.14800
C69         C  0.63389329  0.25109360  0.21564228     0.02400
C70         C  0.63324130  0.20070665  0.21445187     0.02300
C71         C  0.61896577  0.17701335  0.23917167    -0.18200
C72         C  0.60549273  0.20231184  0.26534361     0.02400
C73         C  0.60612964  0.25263490  0.26625717     0.02300
C74         C  0.62019571  0.27628004  0.24114951    -0.18200
H75         H  0.62073477  0.31485091  0.24219767     0.04400
H76         H  0.61855417  0.13842794  0.23872734     0.04400
C77         C  0.64491068  0.71752601  0.77071303     0.02400
C78         C  0.64269294  0.76748199  0.77394891     0.02300
C79         C  0.62795177  0.79034592  0.74922110    -0.18200
C80         C  0.61546836  0.76441314  0.72124254     0.02400
C81         C  0.61790351  0.71449350  0.71762595     0.02300
C82         C  0.63268936  0.69164160  0.74213317    -0.18200
H83         H  0.63397825  0.65314613  0.74097938     0.04400
H84         H  0.62624235  0.82868187  0.75159741     0.04400
C85         C  0.37433483  0.75967697  0.75471254     0.02400
C86         C  0.37473386  0.70913852  0.75476906     0.02300
C87         C  0.36119254  0.68463846  0.78115485    -0.18200
C88         C  0.34715119  0.70934054  0.80635122     0.02400
C89         C  0.34673172  0.75962787  0.80562229     0.02300
C90         C  0.36045414  0.78416425  0.78029603    -0.18200
H91         H  0.36003199  0.82278010  0.77964363     0.04400
H92         H  0.36136171  0.64603616  0.78152138     0.04400
C93         C  0.25381907  0.96845581  0.97699119     0.86600
C94         C  0.26532471  0.00424265  0.00523138    -0.53700
C95         C  0.25430304  0.03200583  0.03307135     0.09500
C96         C  0.23244229  0.02226645  0.02952302     0.20400
C97         C  0.24188548  0.94076007  0.01147452    -0.54400
C98         C  0.23081037  0.96849269  0.03911258     0.09600
C99         C  0.23891523  0.99968288  0.95158707    -0.53900
C100        C  0.22778635  0.02800460  0.97872869     0.10200
H101        H  0.28097422  0.00632666  0.00440953     0.14700
H102        H  0.22348568  0.04510813  0.05191972     0.00400
H103        H  0.24223168  0.90214382  0.01385723     0.15000
H104        H  0.23711636  0.00072489  0.91535312     0.14800
C105        C  0.33212395  0.27654609  0.25134549     0.02400
C106        C  0.33105040  0.22608061  0.25077448     0.02300
C107        C  0.34357541  0.19930952  0.27866427    -0.18200
C108        C  0.35747858  0.22141288  0.30584234     0.02400
C109        C  0.35868243  0.27159798  0.30611170     0.02300
C110        C  0.34584777  0.29845070  0.27929788    -0.18200
H111        H  0.34679379  0.33696863  0.27967070     0.04400
H112        H  0.34319137  0.16073760  0.27746465     0.04400
C113        C  0.22352698  0.47104906  0.98325255     0.86600
C114        C  0.23789649  0.50164091  0.95671469    -0.53700
C115        C  0.24975291  0.52855329  0.98293564     0.09500
C116        C  0.24658213  0.52174275  0.03405446     0.20400
C117        C  0.23641595  0.44133972  0.01511599    -0.54400
C118        C  0.24832437  0.46757088  0.04203279     0.09600
C119        C  0.21302030  0.50636076  0.01403271    -0.53900
C120        C  0.22492776  0.53282400  0.04057629     0.10200
H121        H  0.23936250  0.50176052  0.92039356     0.14700
H122        H  0.25620772  0.54342340  0.05571474     0.00400
H123        H  0.23593998  0.40272638  0.01683324     0.15000
H124        H  0.19739377  0.51015012  0.01480910     0.14800
O125        O  0.50648796  0.92723561  0.51417613    -0.74400
O126        O  0.46617183  0.99496897  0.45167242    -0.74400
O127        O  0.50508057  0.99370966  0.44777389    -0.74400
O128        O  0.46754197  0.92829642  0.51856523    -0.74500
O129        O  0.46908258  0.98511572  0.57088359    -0.74400
O130        O  0.50590918  0.05173077  0.49914928    -0.74400
O131        O  0.46671876  0.05156392  0.50441205    -0.74400
O132        O  0.50768323  0.98484076  0.56581315    -0.74400
Ni133      Ni  0.48626099  0.95901681  0.48119205     1.25400
Ni134      Ni  0.48739628  0.02048872  0.53679456     1.25400
C135        C  0.51350057  0.94449537  0.55064431     0.87800
C136        C  0.45980314  0.03435811  0.46779739     0.87800
C137        C  0.51153042  0.03359345  0.46176375     0.87800
C138        C  0.46255555  0.94524655  0.55698738     0.88000
O139        O  0.47205745  0.55290109  0.51358495    -0.74400
O140        O  0.50931011  0.48368724  0.44372068    -0.74400
O141        O  0.47042121  0.48416120  0.44880835    -0.74400
O142        O  0.51125321  0.55153073  0.50837765    -0.74500
O143        O  0.51187343  0.49606839  0.56242307    -0.74400
O144        O  0.47194939  0.42761593  0.50167348    -0.74400
O145        O  0.51116289  0.42802028  0.49731593    -0.74400
O146        O  0.47289677  0.49579357  0.56607931    -0.74400
Ni147      Ni  0.49068917  0.52010461  0.47674902     1.25400
Ni148      Ni  0.49204058  0.45983132  0.53371361     1.25400
C149        C  0.46639913  0.53576640  0.55130228     0.87800
C150        C  0.51638775  0.44448857  0.45888791     0.87800
C151        C  0.46457191  0.44459452  0.46527981     0.87800
C152        C  0.51810538  0.53493923  0.54551617     0.88000
C153        C  0.86367075  0.24576830  0.71775299     0.02400
C154        C  0.86249090  0.29621564  0.71652083     0.02300
C155        C  0.84956823  0.32009013  0.74535683    -0.18200
C156        C  0.83801427  0.29532967  0.77602741     0.02400
C157        C  0.83879863  0.24486295  0.77629123     0.02300
C158        C  0.85148471  0.22091078  0.74694744    -0.18200
H159        H  0.85220005  0.18232359  0.74758479     0.04400
H160        H  0.84894759  0.35867860  0.74490424     0.04400
C161        C  0.86630997  0.78663008  0.27132573     0.02400
C162        C  0.86830251  0.73635209  0.27033061     0.02300
C163        C  0.85528138  0.70943881  0.24444887    -0.18200
C164        C  0.84021799  0.73139990  0.22001530     0.02400
C165        C  0.83823634  0.78158901  0.22136405     0.02300
C166        C  0.85108386  0.80851337  0.24740982    -0.18200
H167        H  0.84976643  0.84702500  0.24734717     0.04400
H168        H  0.85662867  0.67094653  0.24407814     0.04400
C169        C  0.31230208  0.43423365  0.11098688    -0.17800
C170        C  0.32404575  0.40642835  0.13945315    -0.19900
C171        C  0.31593627  0.37158981  0.16741517     0.20700
C172        C  0.29576801  0.36514180  0.16719082    -0.02800
C173        C  0.28393408  0.39300639  0.13829895    -0.05900
C174        C  0.29224776  0.42754391  0.10984299     0.21000
C175        C  0.26383027  0.38556915  0.13721692     0.19200
C176        C  0.25566383  0.35150595  0.16587019    -0.17400
C177        C  0.26736283  0.32419236  0.19473920    -0.19600
C178        C  0.28743452  0.33033947  0.19529540     0.20700
C179        C  0.29931924  0.30195454  0.22307752    -0.32600
C180        C  0.31946480  0.30739805  0.22270367     0.01300
C181        C  0.32764088  0.34267886  0.19514821    -0.24000
C182        C  0.28041927  0.45374423  0.07990820    -0.28500
C183        C  0.26053228  0.44485280  0.07734529     0.07000
C184        C  0.25230368  0.41139673  0.10666393    -0.27200
H185        H  0.31893833  0.46052988  0.08940272     0.11700
H186        H  0.33950649  0.41190811  0.13931818     0.12900
H187        H  0.24023230  0.34556403  0.16555190     0.11900
H188        H  0.26073159  0.29777251  0.21620032     0.11200
H189        H  0.29293991  0.27541762  0.24486539     0.16600
H190        H  0.34317600  0.34701478  0.19479537     0.12500
H191        H  0.28679193  0.47934741  0.05731794     0.15300
H192        H  0.23690671  0.40493169  0.10504626     0.15100
C193        C  0.41583712  0.37463156  0.30318106    -0.17800
C194        C  0.43060607  0.39897925  0.32531922    -0.19900
C195        C  0.43246803  0.39644131  0.37241925     0.20700
C196        C  0.41940060  0.36876334  0.39748228    -0.02800
C197        C  0.40434030  0.34463364  0.37516915    -0.05900
C198        C  0.40259483  0.34760127  0.32778704     0.21000
C199        C  0.39096262  0.31789594  0.40025499     0.19200
C200        C  0.39294650  0.31496796  0.44733952    -0.17400
C201        C  0.40804691  0.33832131  0.46939969    -0.19600
C202        C  0.42130470  0.36543730  0.44481441     0.20700
C203        C  0.43632130  0.38962119  0.46669188    -0.32600
C204        C  0.44912157  0.41811245  0.44197841     0.01300
C205        C  0.44709659  0.42131630  0.39487471    -0.24000
C206        C  0.38764799  0.32351136  0.30581378    -0.28500
C207        C  0.37430529  0.29677336  0.33049774     0.07000
C208        C  0.37584308  0.29471881  0.37777788    -0.27200
H209        H  0.41470196  0.37718010  0.26678439     0.11700
H210        H  0.44056709  0.41988936  0.30557632     0.12900
H211        H  0.38284852  0.29448219  0.46710279     0.11900
H212        H  0.40927764  0.33543674  0.50575608     0.11200
H213        H  0.43779032  0.38717556  0.50305598     0.16600
H214        H  0.45705893  0.44280223  0.37565078     0.12500
H215        H  0.38637981  0.32533132  0.26936777     0.15300
H216        H  0.36519783  0.27547643  0.39700941     0.15100
C217        C  0.41861916  0.12980046  0.30486161    -0.17800
C218        C  0.43285357  0.10308118  0.32741562    -0.19900
C219        C  0.43126674  0.09381946  0.37379909     0.20700
C220        C  0.41507861  0.11131133  0.39764027    -0.02800
C221        C  0.40051832  0.13742924  0.37468683    -0.05900
C222        C  0.40242275  0.14715257  0.32817113     0.21000
C223        C  0.38412557  0.15403453  0.39833450     0.19200
C224        C  0.38252540  0.14472640  0.44468865    -0.17400
C225        C  0.39714677  0.11971199  0.46762324    -0.19600
C226        C  0.41349563  0.10300018  0.44447306     0.20700
C227        C  0.42831876  0.07829405  0.46731257    -0.32600
C228        C  0.44434048  0.06042049  0.44364743     0.01300
C229        C  0.44563660  0.06773402  0.39686146    -0.24000
C230        C  0.38818521  0.17441204  0.30594718    -0.28500
C231        C  0.37196478  0.19129143  0.32946637     0.07000
C232        C  0.36974881  0.18007626  0.37529063    -0.27200
H233        H  0.42027543  0.13687789  0.26914872     0.11700
H234        H  0.44520444  0.09002319  0.30864742     0.12900
H235        H  0.37005606  0.15727922  0.46333268     0.11900
H236        H  0.39566417  0.11342459  0.50351122     0.11200
H237        H  0.42728334  0.07225850  0.50336339     0.16600
H238        H  0.45808541  0.05414295  0.37871718     0.12500
H239        H  0.38971972  0.18286035  0.27043818     0.15300
H240        H  0.35702676  0.19252450  0.39308608     0.15100
C241        C  0.31034134  0.18953936  0.09476663    -0.17800
C242        C  0.29947179  0.16269751  0.06432607    -0.19900
C243        C  0.28658148  0.12822281  0.07998040     0.20700
C244        C  0.28448397  0.12097391  0.12683558    -0.02800
C245        C  0.29563809  0.14772354  0.15758385    -0.05900
C246        C  0.30862559  0.18214306  0.14140126     0.21000
C247        C  0.29400836  0.13951730  0.20440629     0.19200
C248        C  0.28109643  0.10503570  0.22003638    -0.17400
C249        C  0.26991441  0.07883744  0.18959542    -0.19600
C250        C  0.27151324  0.08642124  0.14292527     0.20700
C251        C  0.26076210  0.05932263  0.11201476    -0.32600
C252        C  0.26327024  0.06548233  0.06535843     0.01300
C253        C  0.27609192  0.10013649  0.04959723    -0.24000
C254        C  0.31986456  0.20808011  0.17205373    -0.28500
C255        C  0.31835609  0.20007828  0.21874130     0.07000
C256        C  0.30544756  0.16559844  0.23466660    -0.27200
H257        H  0.32023985  0.21581000  0.08179390     0.11700
H258        H  0.30123441  0.16872119  0.02846996     0.12900
H259        H  0.27968030  0.09821561  0.25585208     0.11900
H260        H  0.26012927  0.05230939  0.20256212     0.11200
H261        H  0.25112335  0.03197318  0.12411237     0.16600
H262        H  0.27810299  0.10458522  0.01357715     0.12500
H263        H  0.33007286  0.23394834  0.15962373     0.15300
H264        H  0.30434887  0.15918135  0.27063893     0.15100
C265        C  0.26572732  0.64396775  0.86377344    -0.17800
C266        C  0.27943055  0.66763719  0.83772252    -0.19900
C267        C  0.29916574  0.66322969  0.84794381     0.20700
C268        C  0.30516539  0.63505163  0.88504340    -0.02800
C269        C  0.29131824  0.61156443  0.91163228    -0.05900
C270        C  0.27153971  0.61572508  0.90062914     0.21000
C271        C  0.29728716  0.58332198  0.94875223     0.19200
C272        C  0.31703320  0.57894614  0.95891226    -0.17400
C273        C  0.33076949  0.60202771  0.93242007    -0.19600
C274        C  0.32499826  0.63007406  0.89541181     0.20700
C275        C  0.33867830  0.65347868  0.86877930    -0.32600
C276        C  0.33273717  0.68220351  0.83237547     0.01300
C277        C  0.31300398  0.68660190  0.82184912    -0.24000
C278        C  0.25797921  0.59046512  0.92587531    -0.28500
C279        C  0.26387863  0.56111102  0.96204667     0.07000
C280        C  0.28346481  0.55878855  0.97413919    -0.27200
H281        H  0.25058887  0.64749856  0.85491410     0.11700
H282        H  0.27459899  0.68919721  0.80940606     0.12900
H283        H  0.32187574  0.55727867  0.98713697     0.11900
H284        H  0.34592982  0.59789599  0.94086179     0.11200
H285        H  0.35391980  0.65029836  0.87686203     0.16600
H286        H  0.30848101  0.70852057  0.79347910     0.12500
H287        H  0.24282606  0.59249278  0.91664374     0.15300
H288        H  0.28805299  0.53598010  0.00164563     0.15100
C289        C  0.27676940  0.89597735  0.83119642    -0.17800
C290        C  0.28978299  0.86691637  0.80763313    -0.19900
C291        C  0.30417241  0.84109405  0.83082636     0.20700
C292        C  0.30518210  0.84372596  0.87833316    -0.02800
C293        C  0.29213572  0.87338059  0.90205520    -0.05900
C294        C  0.27798242  0.89994633  0.87835617     0.21000
C295        C  0.29343588  0.87689134  0.94938120     0.19200
C296        C  0.30746738  0.85000732  0.97273311    -0.17400
C297        C  0.32032786  0.82042237  0.94930080    -0.19600
C298        C  0.31943014  0.81736278  0.90210278     0.20700
C299        C  0.33271169  0.78909312  0.87819545    -0.32600
C300        C  0.33209464  0.78753225  0.83088277     0.01300
C301        C  0.31774921  0.81327906  0.80737976    -0.24000
C302        C  0.26542319  0.93043312  0.90201767    -0.28500
C303        C  0.26685817  0.93525266  0.94937345     0.07000
C304        C  0.28084764  0.90758335  0.97254420    -0.27200
H305        H  0.26590948  0.91588362  0.81243082     0.11700
H306        H  0.28871242  0.86501375  0.77120491     0.12900
H307        H  0.30860232  0.85216151  0.00913931     0.11900
H308        H  0.33113333  0.80034836  0.96807470     0.11200
H309        H  0.34379357  0.76906140  0.89616936     0.16600
H310        H  0.31724598  0.81161900  0.77084933     0.12500
H311        H  0.25474582  0.94999364  0.88280136     0.15300
H312        H  0.28199302  0.91034709  0.00894327     0.15100
C313        C  0.41238692  0.82366856  0.57678647    -0.17800
C314        C  0.39985634  0.79828413  0.60445241    -0.19900
C315        C  0.39977143  0.80590273  0.65117551     0.20700
C316        C  0.41256449  0.83902228  0.67044302    -0.02800
C317        C  0.42508678  0.86496640  0.64246077    -0.05900
C318        C  0.42494509  0.85727750  0.59539286     0.21000
C319        C  0.43762476  0.89878401  0.66150321     0.19200
C320        C  0.43786171  0.90554185  0.70842951    -0.17400
C321        C  0.42554397  0.87951122  0.73624909    -0.19600
C322        C  0.41272681  0.84648897  0.71755436     0.20700
C323        C  0.40005488  0.82078947  0.74499015    -0.32600
C324        C  0.38731739  0.78782025  0.72577569     0.01300
C325        C  0.38709087  0.78098040  0.67891455    -0.24000
C326        C  0.43726899  0.88350801  0.56768740    -0.28500
C327        C  0.44949575  0.91794958  0.58627898     0.07000
C328        C  0.44963692  0.92532871  0.63324053    -0.27200
H329        H  0.41214978  0.81727420  0.54075128     0.11700
H330        H  0.39019144  0.77272994  0.58927865     0.12900
H331        H  0.44751104  0.93112967  0.72359772     0.11900
H332        H  0.42593471  0.88547732  0.77234270     0.11200
H333        H  0.40019395  0.82591578  0.78123593     0.16600
H334        H  0.37711238  0.75581738  0.66420369     0.12500
H335        H  0.43715371  0.87758415  0.53155204     0.15300
H336        H  0.45927987  0.95131771  0.64785789     0.15100
C337        C  0.38753028  0.58874000  0.63630949    -0.17800
C338        C  0.40022930  0.56518023  0.60701575    -0.19900
C339        C  0.41996079  0.57609859  0.60696803     0.20700
C340        C  0.42691676  0.61157554  0.63641641    -0.02800
C341        C  0.41413458  0.63489261  0.66640440    -0.05900
C342        C  0.39435107  0.62335044  0.66637774     0.21000
C343        C  0.42118541  0.66946337  0.69660526     0.19200
C344        C  0.44082712  0.68125113  0.69581964    -0.17400
C345        C  0.45345463  0.65850416  0.66584592    -0.19600
C346        C  0.44669151  0.62333817  0.63633070     0.20700
C347        C  0.45939277  0.59915884  0.60729950    -0.32600
C348        C  0.45261692  0.56301784  0.57891499     0.01300
C349        C  0.43291746  0.55176533  0.57854413    -0.24000
C350        C  0.38172384  0.64685267  0.69614223    -0.28500
C351        C  0.38860442  0.68153506  0.72623149     0.07000
C352        C  0.40846527  0.69182331  0.72686572    -0.27200
H353        H  0.37237309  0.57960124  0.63568791     0.11700
H354        H  0.39462270  0.53824342  0.58451221     0.12900
H355        H  0.44643827  0.70804111  0.71847791     0.11900
H356        H  0.46857023  0.66806316  0.66609487     0.11200
H357        H  0.47464280  0.60756833  0.60748819     0.16600
H358        H  0.42777302  0.52383053  0.55648072     0.12500
H359        H  0.36643850  0.63896907  0.69524921     0.15300
H360        H  0.41392792  0.71801331  0.75035902     0.15100
C361        C  0.56858711  0.83167610  0.55400215    -0.17800
C362        C  0.58299954  0.80696005  0.57783654    -0.19900
C363        C  0.58425433  0.81069287  0.62494588     0.20700
C364        C  0.57075135  0.83921701  0.64840275    -0.02800
C365        C  0.55634665  0.86460998  0.62429757    -0.05900
C366        C  0.55529365  0.86082888  0.57685708     0.21000
C367        C  0.54315416  0.89415519  0.64760034     0.19200
C368        C  0.54413909  0.89699150  0.69483204    -0.17400
C369        C  0.55831132  0.87145905  0.71877030    -0.19600
C370        C  0.57180170  0.84289154  0.69585480     0.20700
C371        C  0.58640622  0.81821609  0.71944562    -0.32600
C372        C  0.59997913  0.79012306  0.69616323     0.01300
C373        C  0.59888129  0.78675913  0.64894945    -0.24000
C374        C  0.54109839  0.88662533  0.55306661    -0.28500
C375        C  0.52826347  0.91707757  0.57595007     0.07000
C376        C  0.52932039  0.92058318  0.62321537    -0.27200
H377        H  0.56795542  0.82835500  0.51761337     0.11700
H378        H  0.59320954  0.78500955  0.55939840     0.12900
H379        H  0.53402267  0.91921916  0.71324957     0.11900
H380        H  0.55885078  0.87446682  0.75519037     0.11200
H381        H  0.58725206  0.82073157  0.75589865     0.16600
H382        H  0.60957855  0.76588950  0.63090676     0.12500
H383        H  0.54028408  0.88380412  0.51662949     0.15300
H384        H  0.51921937  0.94346454  0.64101837     0.15100
C385        C  0.53967550  0.61649957  0.68311091    -0.17800
C386        C  0.55362885  0.64167065  0.70722957    -0.19900
C387        C  0.57168510  0.65088115  0.68800524     0.20700
C388        C  0.57575300  0.63458480  0.64397987    -0.02800
C389        C  0.56151093  0.61000654  0.61925855    -0.05900
C390        C  0.54344638  0.60067296  0.63912629     0.21000
C391        C  0.56531246  0.59492701  0.57469474     0.19200
C392        C  0.58347690  0.60368501  0.55570705    -0.17400
C393        C  0.59771901  0.62731986  0.58051541    -0.19600
C394        C  0.59398571  0.64311013  0.62457717     0.20700
C395        C  0.60802644  0.66777130  0.64941477    -0.32600
C396        C  0.60377969  0.68519145  0.69268996     0.01300
C397        C  0.58567085  0.67647652  0.71186722    -0.24000
C398        C  0.52945519  0.57574748  0.61466041    -0.28500
C399        C  0.53303363  0.56135016  0.57015527     0.07000
C400        C  0.55088666  0.57130469  0.55008790    -0.27200
H401        H  0.52586381  0.60969915  0.69876064     0.11700
H402        H  0.55030378  0.65388853  0.74099453     0.12900
H403        H  0.58668514  0.59218219  0.52165951     0.11900
H404        H  0.61161166  0.63362017  0.56507301     0.11200
H405        H  0.62201955  0.67477401  0.63471180     0.16600
H406        H  0.58249490  0.68997437  0.74530837     0.12500
H407        H  0.51562145  0.56809783  0.62993227     0.15300
H408        H  0.55364629  0.55973020  0.51581714     0.15100
C409        C  0.57966812  0.29347555  0.41589860    -0.17800
C410        C  0.56721007  0.32046841  0.44294956    -0.19900
C411        C  0.55529003  0.35585841  0.42375158     0.20700
C412        C  0.55611657  0.36455206  0.37686723    -0.02800
C413        C  0.56858414  0.33709255  0.34952050    -0.05900
C414        C  0.58036541  0.30130858  0.36918370     0.21000
C415        C  0.56919215  0.34531051  0.30253241     0.19200
C416        C  0.55750418  0.38118369  0.28340599    -0.17400
C417        C  0.54522152  0.40856029  0.31054795    -0.19600
C418        C  0.54436416  0.40036878  0.35722898     0.20700
C419        C  0.53177419  0.42694644  0.38449533    -0.32600
C420        C  0.53049783  0.41773144  0.43108444     0.01300
C421        C  0.54240908  0.38231093  0.45050827    -0.24000
C422        C  0.59261149  0.27396385  0.34179526    -0.28500
C423        C  0.59304635  0.28148170  0.29495365     0.07000
C424        C  0.58143630  0.31742276  0.27554704    -0.27200
H425        H  0.58866118  0.26620403  0.43148402     0.11700
H426        H  0.56681811  0.31347106  0.47889168     0.12900
H427        H  0.55782502  0.38799240  0.24742528     0.11900
H428        H  0.53628217  0.43593873  0.29496721     0.11200
H429        H  0.52261631  0.45409203  0.36919057     0.16600
H430        H  0.54163426  0.37528118  0.48642566     0.12500
H431        H  0.60187189  0.24686329  0.35683580     0.15300
H432        H  0.58189060  0.32335138  0.23940908     0.15100
C433        C  0.52511518  0.14512783  0.33807538    -0.17800
C434        C  0.53823166  0.16812268  0.30986973    -0.19900
C435        C  0.55815946  0.16013658  0.31493609     0.20700
C436        C  0.56495348  0.12866815  0.34881816    -0.02800
C437        C  0.55172968  0.10565891  0.37744316    -0.05900
C438        C  0.53170813  0.11388966  0.37192840     0.21000
C439        C  0.55853652  0.07433836  0.41147049     0.19200
C440        C  0.57846314  0.06639965  0.41656047    -0.17400
C441        C  0.59156108  0.08914146  0.38813774    -0.19600
C442        C  0.58495917  0.12024824  0.35418435     0.20700
C443        C  0.59801597  0.14344896  0.32582243    -0.32600
C444        C  0.59136646  0.17542784  0.29260228     0.01300
C445        C  0.57142509  0.18331672  0.28701026    -0.24000
C446        C  0.51865245  0.09051036  0.40019916    -0.28500
C447        C  0.52539342  0.05926493  0.43382966     0.07000
C448        C  0.54527578  0.05132119  0.43954870    -0.27200
H449        H  0.50979890  0.15180548  0.33342567     0.11700
H450        H  0.53278478  0.19219182  0.28407650     0.12900
H451        H  0.58392198  0.04251225  0.44249048     0.11900
H452        H  0.60687668  0.08243266  0.39275297     0.11200
H453        H  0.61341181  0.13768021  0.33027520     0.16600
H454        H  0.56631992  0.20789631  0.26123931     0.12500
H455        H  0.50324036  0.09624792  0.39592555     0.15300
H456        H  0.55034511  0.02690976  0.46551249     0.15100
C457        C  0.71956645  0.86057551  0.83273591    -0.17800
C458        C  0.70746327  0.83097720  0.80762487    -0.19900
C459        C  0.68779671  0.82756689  0.81822379     0.20700
C460        C  0.68028433  0.85390373  0.85482206    -0.02800
C461        C  0.69258110  0.88322490  0.88062256    -0.05900
C462        C  0.71226207  0.88692749  0.86918914     0.21000
C463        C  0.68515896  0.90903824  0.91763416     0.19200
C464        C  0.66548089  0.90564308  0.92821321    -0.17400
C465        C  0.65322936  0.87723104  0.90219825    -0.19600
C466        C  0.66046868  0.85125228  0.86542772     0.20700
C467        C  0.64825842  0.82290795  0.83892385    -0.32600
C468        C  0.65569602  0.79648438  0.80258040     0.01300
C469        C  0.67548104  0.79868829  0.79262585    -0.24000
C470        C  0.72425368  0.91716668  0.89417317    -0.28500
C471        C  0.71696108  0.94315827  0.93104374     0.07000
C472        C  0.69748628  0.93817387  0.94305014    -0.27200
H473        H  0.73465640  0.86290125  0.82359308     0.11700
H474        H  0.71346097  0.81103185  0.77964308     0.12900
H475        H  0.65952013  0.92530843  0.95641650     0.11900
H476        H  0.63807182  0.87556011  0.91086992     0.11200
H477        H  0.63299189  0.82110074  0.84659075     0.16600
H478        H  0.68116212  0.77858380  0.76435489     0.12500
H479        H  0.73934320  0.92024314  0.88515834     0.15300
H480        H  0.69178616  0.95790912  0.97135182     0.15100
C481        C  0.70081112  0.15963732  0.17668962    -0.17800
C482        C  0.71422595  0.13583807  0.14948294    -0.19900
C483        C  0.70800251  0.10432113  0.11587637     0.20700
C484        C  0.68808984  0.09591517  0.11018399    -0.02800
C485        C  0.67454338  0.12030183  0.13732633    -0.05900
C486        C  0.68095734  0.15254427  0.17051747     0.21000
C487        C  0.65459686  0.11307538  0.13068435     0.19200
C488        C  0.64840124  0.08079665  0.09769338    -0.17400
C489        C  0.66183928  0.05638016  0.07098027    -0.19600
C490        C  0.68169337  0.06398780  0.07668653     0.20700
C491        C  0.69523290  0.04128545  0.04869985    -0.32600
C492        C  0.71497543  0.05094857  0.05310987     0.01300
C493        C  0.72129682  0.08196213  0.08713529    -0.24000
C494        C  0.66740594  0.17774881  0.19638130    -0.28500
C495        C  0.64752894  0.17194545  0.18884045     0.07000
C496        C  0.64121612  0.13892419  0.15655613    -0.27200
H497        H  0.70595596  0.18418944  0.20209108     0.11700
H498        H  0.72946996  0.14250259  0.15438217     0.12900
H499        H  0.63314367  0.07477960  0.09224117     0.11900
H500        H  0.65668894  0.03202525  0.04541203     0.11200
H501        H  0.69033934  0.01791901  0.02219392     0.16600
H502        H  0.73657774  0.08916313  0.09070971     0.12500
H503        H  0.67227922  0.20245343  0.22197202     0.15300
H504        H  0.62587385  0.13425162  0.15094023     0.15100
C505        C  0.80035386  0.84122933  0.04091620    -0.17800
C506        C  0.81339996  0.81781369  0.06953453    -0.19900
C507        C  0.81197997  0.82315923  0.11640684     0.20700
C508        C  0.79701272  0.85144572  0.13484737    -0.02800
C509        C  0.78377936  0.87497344  0.10592855    -0.05900
C510        C  0.78568291  0.87026184  0.05877338     0.21000
C511        C  0.76918795  0.90475748  0.12405987     0.19200
C512        C  0.76761882  0.90933747  0.17107162    -0.17400
C513        C  0.78068929  0.88571406  0.19981319    -0.19600
C514        C  0.79560328  0.85725745  0.18203699     0.20700
C515        C  0.80926376  0.83489703  0.21041381    -0.32600
C516        C  0.82412520  0.80670145  0.19197467     0.01300
C517        C  0.82542899  0.80113627  0.14508012    -0.24000
C518        C  0.77362912  0.89684894  0.03020068    -0.28500
C519        C  0.75998523  0.92890887  0.04795498     0.07000
C520        C  0.75722778  0.93147365  0.09477878    -0.27200
H521        H  0.80198370  0.83742043  0.00475580     0.11700
H522        H  0.82478345  0.79607436  0.05497764     0.12900
H523        H  0.75652124  0.93197258  0.18559860     0.11900
H524        H  0.77932898  0.89035277  0.23594234     0.11200
H525        H  0.80828343  0.83891713  0.24670240     0.16600
H526        H  0.83699632  0.77954630  0.13102795     0.12500
H527        H  0.77580867  0.89542742  0.99399732     0.15300
H528        H  0.74691310  0.95693445  0.10833705     0.15100
C529        C  0.83235403  0.11523931  0.88742004    -0.17800
C530        C  0.82087680  0.08575172  0.91391121    -0.19900
C531        C  0.80075378  0.09228261  0.91484920     0.20700
C532        C  0.79213764  0.12930436  0.88946628    -0.02800
C533        C  0.80370303  0.15896734  0.86257290    -0.05900
C534        C  0.82388219  0.15160055  0.86132822     0.21000
C535        C  0.79503145  0.19531498  0.83625063     0.19200
C536        C  0.77497371  0.20246754  0.83798820    -0.17400
C537        C  0.76351897  0.17306410  0.86473356    -0.19600
C538        C  0.77194386  0.13602149  0.89012361     0.20700
C539        C  0.76049402  0.10512920  0.91552017    -0.32600
C540        C  0.76884848  0.06758152  0.94076371     0.01300
C541        C  0.78914315  0.06177712  0.94012326    -0.24000
C542        C  0.83520243  0.18027412  0.83353798    -0.28500
C543        C  0.82662062  0.21592241  0.80660035     0.07000
C544        C  0.80653130  0.22328088  0.80810628    -0.27200
H545        H  0.84783007  0.10923245  0.88691478     0.11700
H546        H  0.82773376  0.05752093  0.93335831     0.12900
H547        H  0.76811655  0.23045880  0.81824307     0.11900
H548        H  0.74803351  0.17890925  0.86510304     0.11200
H549        H  0.74493885  0.10990797  0.91534672     0.16600
H550        H  0.79629428  0.03311902  0.95787254     0.12500
H551        H  0.85071875  0.17482586  0.83264710     0.15300
H552        H  0.79987236  0.25044627  0.78697828     0.15100
C553        C  0.68550062  0.37076236  0.21668547    -0.17800
C554        C  0.69829788  0.40037943  0.19381130    -0.19900
C555        C  0.69965528  0.39869093  0.14659097     0.20700
C556        C  0.68820499  0.36626923  0.12228294    -0.02800
C557        C  0.67528787  0.33630159  0.14535992    -0.05900
C558        C  0.67383954  0.33891926  0.19275279     0.21000
C559        C  0.66360875  0.30433886  0.12096014     0.19200
C560        C  0.66513929  0.30225704  0.07381806    -0.17400
C561        C  0.67794289  0.33196788  0.05098475    -0.19600
C562        C  0.68944225  0.36425284  0.07490632     0.20700
C563        C  0.70192382  0.39502819  0.05218999    -0.32600
C564        C  0.71317520  0.42847237  0.07584044     0.01300
C565        C  0.71204711  0.42940782  0.12338170    -0.24000
C566        C  0.66054013  0.31022706  0.21530868    -0.28500
C567        C  0.64867859  0.27885120  0.19119759     0.07000
C568        C  0.65038541  0.27571782  0.14407159    -0.27200
H569        H  0.68459088  0.37309525  0.25309970     0.11700
H570        H  0.70700964  0.42497083  0.21306481     0.12900
H571        H  0.65631042  0.27792949  0.05455730     0.11900
H572        H  0.67873413  0.32997049  0.01453694     0.11200
H573        H  0.70266060  0.39370070  0.01567533     0.16600
H574        H  0.72042946  0.45404598  0.14298272     0.12500
H575        H  0.65924924  0.31247266  0.25169344     0.15300
H576        H  0.64112792  0.25176704  0.12545896     0.15100
C577        C  0.65573124  0.65090137  0.92186806    -0.17800
C578        C  0.66673209  0.62392173  0.95234024    -0.19900
C579        C  0.68445485  0.60382643  0.93915866     0.20700
C580        C  0.69119912  0.61083069  0.89485865    -0.02800
C581        C  0.68000639  0.63780188  0.86391521    -0.05900
C582        C  0.66223770  0.65803276  0.87767872     0.21000
C583        C  0.68650630  0.64425697  0.81923465     0.19200
C584        C  0.70423926  0.62399648  0.80616404    -0.17400
C585        C  0.71542507  0.59757142  0.83701979    -0.19600
C586        C  0.70903560  0.59067566  0.88145423     0.20700
C587        C  0.71995117  0.56337014  0.91249983    -0.32600
C588        C  0.71300241  0.55515039  0.95631990     0.01300
C589        C  0.69539369  0.57632778  0.96945472    -0.24000
C590        C  0.65119923  0.68476321  0.84695928    -0.28500
C591        C  0.65748646  0.69097056  0.80249049     0.07000
C592        C  0.67507565  0.67059281  0.78854130    -0.27200
H593        H  0.64208803  0.66605596  0.93282419     0.11700
H594        H  0.66135319  0.61868425  0.98624427     0.12900
H595        H  0.70946016  0.62856136  0.77204218     0.11900
H596        H  0.72903034  0.58225003  0.82602753     0.11200
H597        H  0.73346510  0.54735867  0.90208084     0.16600
H598        H  0.69009413  0.57116036  0.00345347     0.12500
H599        H  0.63751996  0.70030350  0.85732413     0.15300
H600        H  0.67979874  0.67540039  0.75402820     0.15100
C601        C  0.81410783  0.58747149  0.07314616    -0.17800
C602        C  0.82711495  0.61367955  0.09930124    -0.19900
C603        C  0.82040819  0.64450905  0.13317485     0.20700
C604        C  0.80034479  0.64947940  0.14027982    -0.02800
C605        C  0.78721636  0.62288262  0.11400444    -0.05900
C606        C  0.79413828  0.59147018  0.08043697     0.21000
C607        C  0.76720039  0.62684648  0.12212925     0.19200
C608        C  0.76044705  0.65844037  0.15528617    -0.17400
C609        C  0.77342405  0.68512121  0.18094505    -0.19600
C610        C  0.79339046  0.68045651  0.17410599     0.20700
C611        C  0.80650529  0.70607963  0.20061075    -0.32600
C612        C  0.82652224  0.70159439  0.19360557     0.01300
C613        C  0.83337423  0.67044405  0.16002976    -0.24000
C614        C  0.78102063  0.56343672  0.05595806    -0.28500
C615        C  0.76118530  0.56556749  0.06559274     0.07000
C616        C  0.75435028  0.59797598  0.09806448    -0.27200
H617        H  0.81969553  0.56353924  0.04759768     0.11700
H618        H  0.84245499  0.60956261  0.09323075     0.12900
H619        H  0.74512046  0.66207876  0.16177641     0.11900
H620        H  0.76784565  0.70899963  0.20655373     0.11200
H621        H  0.80117393  0.72978354  0.22667152     0.16600
H622        H  0.84877965  0.66718558  0.15430663     0.12500
H623        H  0.78630775  0.53802859  0.03130513     0.15300
H624        H  0.73903975  0.59956981  0.10548898     0.15100
C625        C  0.81570597  0.32727240  0.93178380    -0.17800
C626        C  0.80364275  0.35157254  0.96188515    -0.19900
C627        C  0.79117015  0.38782965  0.94641728     0.20700
C628        C  0.79104011  0.40026419  0.90028702    -0.02800
C629        C  0.80303626  0.37527714  0.86978519    -0.05900
C630        C  0.81538859  0.33855866  0.88565172     0.21000
C631        C  0.80247026  0.38659841  0.82339766     0.19200
C632        C  0.79026561  0.42352566  0.80811248    -0.17400
C633        C  0.77850784  0.44859452  0.83840833    -0.19600
C634        C  0.77864016  0.43696013  0.88449352     0.20700
C635        C  0.76618843  0.46029406  0.91481287    -0.32600
C636        C  0.76564213  0.44653241  0.96036437     0.01300
C637        C  0.77846154  0.41095397  0.97605791    -0.24000
C638        C  0.82705219  0.31343243  0.85508929    -0.28500
C639        C  0.82607970  0.32329350  0.80856494     0.07000
C640        C  0.81392247  0.36040599  0.79309086    -0.27200
H641        H  0.82509916  0.29917302  0.94450345     0.11700
H642        H  0.80393463  0.34168188  0.99723371     0.12900
H643        H  0.78970319  0.43279878  0.77263032     0.11900
H644        H  0.76908630  0.47662629  0.82567009     0.11200
H645        H  0.75628126  0.48738078  0.90251953     0.16600
H646        H  0.77825697  0.40065054  0.01132491     0.12500
H647        H  0.83678130  0.28582172  0.86742138     0.15300
H648        H  0.81319486  0.36839072  0.75732253     0.15100
C649        C  0.22189418  0.84968969  0.16000497    -0.17800
C650        C  0.20973140  0.82405310  0.18849058    -0.19900
C651        C  0.18987786  0.83441105  0.18973552     0.20700
C652        C  0.18224986  0.87150462  0.16261616    -0.02800
C653        C  0.19458002  0.89801030  0.13458677    -0.05900
C654        C  0.21443482  0.88649177  0.13273798     0.21000
C655        C  0.18696605  0.93532494  0.10768333     0.19200
C656        C  0.16713238  0.94585847  0.10914301    -0.17400
C657        C  0.15486038  0.91903096  0.13631491    -0.19600
C658        C  0.16226285  0.88166219  0.16294206     0.20700
C659        C  0.14998974  0.85385237  0.18935701    -0.32600
C660        C  0.15744148  0.81661617  0.21629411    -0.02300
C661        C  0.17748811  0.80796361  0.21715924    -0.24000
C662        C  0.22634773  0.91106779  0.10269677    -0.28500
C663        C  0.21872461  0.94739969  0.07492511     0.07000
C664        C  0.19919582  0.96036749  0.07867865    -0.27200
H665        H  0.23711583  0.84047503  0.15902776     0.11700
H666        H  0.21580506  0.79561453  0.20902324     0.12900
H667        H  0.16105338  0.97430783  0.08863025     0.11900
H668        H  0.13955027  0.92735859  0.13632219     0.11200
H669        H  0.13455914  0.86068682  0.18842970     0.16600
H670        H  0.18339619  0.78014437  0.23869525     0.12500
H671        H  0.24150097  0.90137598  0.10020392     0.15300
H672        H  0.19329575  0.98815869  0.05736106     0.15100
C673        C  0.18253910  0.67125937  0.06387390    -0.17800
C674        C  0.17083815  0.69880621  0.09213202    -0.19900
C675        C  0.17098852  0.69100852  0.13887031     0.20700
C676        C  0.18337748  0.65581971  0.15752693    -0.02800
C677        C  0.19526837  0.62811478  0.12899870    -0.05900
C678        C  0.19460740  0.63554547  0.08191743     0.21000
C679        C  0.20734334  0.59205229  0.14739020     0.19200
C680        C  0.20761102  0.58465827  0.19425174    -0.17400
C681        C  0.19580941  0.61215425  0.22255439    -0.19600
C682        C  0.18353441  0.64753081  0.20449792     0.20700
C683        C  0.17121884  0.67432005  0.23240874    -0.32600
C684        C  0.15878472  0.70924472  0.21391176     0.01300
C685        C  0.15871776  0.71723973  0.16713051    -0.24000
C686        C  0.20543439  0.60591419  0.05352888    -0.28500
C687        C  0.21694899  0.56904845  0.07146021     0.07000
C688        C  0.21830936  0.56292264  0.11838759    -0.27200
H689        H  0.18192354  0.67739108  0.02779173     0.11700
H690        H  0.16146626  0.72580678  0.07735299     0.12900
H691        H  0.21674084  0.55712679  0.20896265     0.11900
H692        H  0.19612334  0.60537613  0.25854732     0.11200
H693        H  0.17122941  0.66804227  0.26851061     0.16600
H694        H  0.14890499  0.74355705  0.15274711     0.12500
H695        H  0.20435284  0.61019829  0.01722299     0.15300
H696        H  0.22699861  0.53389380  0.13200144     0.15100
C697        C  0.06944992  0.60612019  0.29842252    -0.17800
C698        C  0.05537145  0.58028509  0.32127304    -0.19900
C699        C  0.05168824  0.58911496  0.36702625     0.20700
C700        C  0.06233584  0.62419871  0.39004701    -0.02800
C701        C  0.07668097  0.64985191  0.36716014    -0.05900
C702        C  0.08015647  0.64091968  0.32106863     0.21000
C703        C  0.08742395  0.68468188  0.39031460     0.19200
C704        C  0.08362295  0.69382501  0.43592180    -0.17400
C705        C  0.06925992  0.66873848  0.45848930    -0.19600
C706        C  0.05857427  0.63389757  0.43586523     0.20700
C707        C  0.04412788  0.60877678  0.45823462    -0.32600
C708        C  0.03350813  0.57367268  0.43561096     0.01300
C709        C  0.03744697  0.56378467  0.39007668    -0.24000
C710        C  0.09404779  0.66752102  0.29827732    -0.28500
C711        C  0.10455000  0.70276206  0.32100049     0.07000
C712        C  0.10155069  0.71029808  0.36725896    -0.27200
H713        H  0.07194489  0.59893901  0.26300850     0.11700
H714        H  0.04728472  0.55358871  0.30309107     0.12900
H715        H  0.09166655  0.72063759  0.45405563     0.11900
H716        H  0.06650461  0.67659407  0.49366795     0.11200
H717        H  0.04120071  0.61647627  0.49339156     0.16600
H718        H  0.02918706  0.53704665  0.37234418     0.12500
H719        H  0.09635788  0.66180506  0.26252468     0.15300
H720        H  0.10980496  0.73719130  0.38480228     0.15100
C721        C  0.91015462  0.42385061  0.70240178    -0.17800
C722        C  0.92432643  0.44735720  0.67783502    -0.19900
C723        C  0.92823221  0.43414399  0.63316703     0.20700
C724        C  0.91753337  0.39756022  0.61263966    -0.02800
C725        C  0.90300305  0.37437178  0.63720418    -0.05900
C726        C  0.89953843  0.38717049  0.68248288     0.21000
C727        C  0.89219465  0.33789568  0.61676448     0.19200
C728        C  0.89605127  0.32489045  0.57197982    -0.17400
C729        C  0.91067140  0.34745849  0.54778891    -0.19600
C730        C  0.92154108  0.38369688  0.56786496     0.20700
C731        C  0.93645565  0.40603516  0.54419907    -0.32600
C732        C  0.94720994  0.44240777  0.56463883     0.01300
C733        C  0.94284483  0.45651518  0.60894893    -0.24000
C734        C  0.88589052  0.36224186  0.70749414    -0.28500
C735        C  0.87537432  0.32515198  0.68776957     0.07000
C736        C  0.87806979  0.31434930  0.64187063    -0.27200
H737        H  0.90759441  0.43412314  0.73710308     0.11700
H738        H  0.93242350  0.47544257  0.69398332     0.12900
H739        H  0.88794739  0.29679150  0.55587774     0.11900
H740        H  0.91353454  0.33642296  0.51343521     0.11200
H741        H  0.93965108  0.39520804  0.50992738     0.16600
H742        H  0.95108343  0.48441196  0.62504387     0.12500
H743        H  0.88390134  0.37063051  0.74287651     0.15300
H744        H  0.86969099  0.28639565  0.62629804     0.15100
C745        C  0.92183511  0.61888115  0.28108218    -0.17800
C746        C  0.93542746  0.59328785  0.30669810    -0.19900
C747        C  0.93714380  0.60113105  0.35328369     0.20700
C748        C  0.92521567  0.63556521  0.37420141    -0.02800
C749        C  0.91140361  0.66117408  0.34839675    -0.05900
C750        C  0.90966425  0.65260556  0.30164283     0.21000
C751        C  0.89919732  0.69489437  0.36947407     0.19200
C752        C  0.90110189  0.70325739  0.41593711    -0.17400
C753        C  0.91489541  0.67816026  0.44143760    -0.19600
C754        C  0.92695075  0.64408986  0.42095040     0.20700
C755        C  0.94057845  0.61809964  0.44643044    -0.32600
C756        C  0.95226703  0.58305920  0.42595599     0.01300
C757        C  0.95047768  0.57490393  0.37932899    -0.24000
C758        C  0.89568977  0.67760705  0.27636374    -0.28500
C759        C  0.88338376  0.71095071  0.29720735     0.07000
C760        C  0.88518315  0.71927556  0.34381436    -0.27200
H761        H  0.92072855  0.61198928  0.24521481     0.11700
H762        H  0.94454018  0.56714732  0.29008623     0.12900
H763        H  0.89187741  0.72912833  0.43259412     0.11900
H764        H  0.91603792  0.68515552  0.47728008     0.11200
H765        H  0.94183487  0.62453286  0.48237003     0.16600
H766        H  0.95956285  0.54831455  0.36322490     0.12500
H767        H  0.89434282  0.67120196  0.24043064     0.15300
H768        H  0.87549860  0.74436942  0.36014291     0.15100
C769        C  0.08174319  0.94689316  0.41165541    -0.17800
C770        C  0.09609476  0.92067780  0.38932614    -0.19900
C771        C  0.09153990  0.87820270  0.36695340     0.20700
C772        C  0.07238678  0.86166808  0.36756804    -0.02800
C773        C  0.05802776  0.88728688  0.39132807    -0.05900
C774        C  0.06267149  0.93053599  0.41285668     0.21000
C775        C  0.03899841  0.86984558  0.39316047     0.19200
C776        C  0.03446515  0.82737305  0.37079229    -0.17400
C777        C  0.04855137  0.80287357  0.34601102    -0.19600
C778        C  0.06751888  0.81984535  0.34403800     0.20700
C779        C  0.08166755  0.79582525  0.31881755    -0.32600
C780        C  0.10105408  0.81059556  0.31972903     0.01300
C781        C  0.10579021  0.85202511  0.34397364    -0.24000
C782        C  0.04813332  0.95668688  0.43495476    -0.28500
C783        C  0.02924922  0.93916108  0.43716096     0.07000
C784        C  0.02480881  0.89550440  0.41684030    -0.27200
H785        H  0.08558028  0.97988179  0.42815540     0.11700
H786        H  0.11072855  0.93393336  0.38911185     0.12900
H787        H  0.01994131  0.81347038  0.37190074     0.11900
H788        H  0.04463182  0.77049515  0.32854831     0.11200
H789        H  0.07756760  0.76534847  0.29876227     0.16600
H790        H  0.12061512  0.86396980  0.34493470     0.12500
H791        H  0.05150355  0.99031575  0.45093382     0.15300
H792        H  0.01016546  0.88230975  0.41841015     0.15100
C793        C  0.88171497  0.90307526  0.39080782    -0.17800
C794        C  0.89519116  0.92917610  0.41558385    -0.19900
C795        C  0.91484457  0.92744751  0.40432673     0.20700
C796        C  0.92097897  0.89946370  0.36742434    -0.02800
C797        C  0.90739891  0.87259868  0.34278591    -0.05900
C798        C  0.88767104  0.87443797  0.35458692     0.21000
C799        C  0.91359313  0.84349350  0.30674710     0.19200
C800        C  0.93322416  0.84222882  0.29513939    -0.17400
C801        C  0.94665260  0.86923145  0.31924147    -0.19600
C802        C  0.94071320  0.89773757  0.35559108     0.20700
C803        C  0.95416298  0.92385378  0.38085532    -0.32600
C804        C  0.94812134  0.95079931  0.41816432     0.01300
C805        C  0.92850874  0.95257935  0.42973190    -0.24000
C806        C  0.87429795  0.84711819  0.33038726    -0.28500
C807        C  0.88044396  0.81718603  0.29522692     0.07000
C808        C  0.90007867  0.81583452  0.28331162    -0.27200
H809        H  0.86663747  0.90488502  0.40030854     0.11700
H810        H  0.89024527  0.95056887  0.44372498     0.12900
H811        H  0.93821494  0.82014889  0.26752181     0.11900
H812        H  0.96172993  0.86742624  0.30973705     0.11200
H813        H  0.96937698  0.92215302  0.37243634     0.16600
H814        H  0.92396159  0.97324107  0.45876066     0.12500
H815        H  0.85916258  0.84809251  0.33956666     0.15300
H816        H  0.90478215  0.79304087  0.25590495     0.15100
C817        C  0.94437154  0.19164389  0.64169732    -0.17800
C818        C  0.93094362  0.21644438  0.66811338    -0.19900
C819        C  0.91133707  0.20440028  0.66687520     0.20700
C820        C  0.90515823  0.16713877  0.63856086    -0.02800
C821        C  0.91875310  0.14165139  0.61233857    -0.05900
C822        C  0.93844721  0.15409901  0.61387434     0.21000
C823        C  0.91267207  0.10347214  0.58494054     0.19200
C824        C  0.89302076  0.09184759  0.58332419    -0.17400
C825        C  0.87951189  0.11758678  0.60878970    -0.19600
C826        C  0.88543483  0.15509817  0.63669593     0.20700
C827        C  0.87200680  0.18080403  0.66271570    -0.32600
C828        C  0.87805989  0.21810517  0.69089381     0.01300
C829        C  0.89781850  0.22897321  0.69344346    -0.24000
C830        C  0.95188558  0.12840393  0.58798521    -0.28500
C831        C  0.94594721  0.08983023  0.56149622     0.07000
C832        C  0.92638393  0.07738855  0.56004612    -0.27200
H833        H  0.95943145  0.20159379  0.64329757     0.11700
H834        H  0.93589613  0.24512533  0.68949819     0.12900
H835        H  0.88809304  0.06279047  0.56237421     0.11900
H836        H  0.86442881  0.10791753  0.60689574     0.11200
H837        H  0.85680697  0.17216423  0.66081228     0.16600
H838        H  0.90260925  0.25702702  0.71579002     0.12500
H839        H  0.96704812  0.13757933  0.58922415     0.15300
H840        H  0.92190163  0.04748401  0.53956279     0.15100
C841        C  0.16105672  0.31588655  0.95164579    -0.17800
C842        C  0.17404370  0.34392891  0.97598128    -0.19900
C843        C  0.18493943  0.37883762  0.95401133     0.20700
C844        C  0.18266875  0.38564045  0.90715301    -0.02800
C845        C  0.16961625  0.35734496  0.88259247    -0.05900
C846        C  0.15876187  0.32227038  0.90493655     0.21000
C847        C  0.16740175  0.36430614  0.83569151     0.19200
C848        C  0.17797522  0.39980067  0.81387758    -0.17400
C849        C  0.19077712  0.42803646  0.83826673    -0.19600
C850        C  0.19332760  0.42096360  0.88480023     0.20700
C851        C  0.20637124  0.44874299  0.90916163    -0.32600
C852        C  0.20936082  0.44132936  0.95579005     0.01300
C853        C  0.19808775  0.40696089  0.97800210    -0.24000
C854        C  0.14574653  0.29448978  0.88018504    -0.28500
C855        C  0.14374047  0.30076412  0.83326573     0.07000
C856        C  0.15462453  0.33577304  0.81137245    -0.27200
H857        H  0.15283368  0.28913860  0.96934524     0.11700
H858        H  0.17559487  0.33824113  0.01198424     0.12900
H859        H  0.17634362  0.40573144  0.77792358     0.11900
H860        H  0.19880379  0.45520361  0.82063508     0.11200
H861        H  0.21367281  0.47664694  0.89124004     0.16600
H862        H  0.19967696  0.40193962  0.01410457     0.12500
H863        H  0.13704039  0.26834886  0.89741896     0.15300
H864        H  0.15313861  0.34070966  0.77522664     0.15100
C865        C  0.21069621  0.14555693  0.86114006    -0.17800
C866        C  0.19687855  0.17163313  0.83667460    -0.19900
C867        C  0.17735592  0.17048970  0.84897670     0.20700
C868        C  0.17170058  0.14311618  0.88659594    -0.02800
C869        C  0.18571102  0.11720906  0.91165494    -0.05900
C870        C  0.20525123  0.11814239  0.89852190     0.21000
C871        C  0.18013726  0.08976705  0.94930381     0.19200
C872        C  0.16057797  0.08867097  0.96156186    -0.17400
C873        C  0.14666126  0.11403139  0.93649802    -0.19600
C874        C  0.15204789  0.14120995  0.89886030     0.20700
C875        C  0.13818188  0.16642710  0.87320089    -0.32600
C876        C  0.14381916  0.19421589  0.83610201     0.01300
C877        C  0.16339793  0.19605838  0.82419092    -0.24000
C878        C  0.21894526  0.09067273  0.92221362    -0.28500
C879        C  0.21348125  0.06215266  0.95899014     0.07000
C880        C  0.19413111  0.06286422  0.97311224    -0.27200
H881        H  0.22564985  0.14659480  0.85062913     0.11700
H882        H  0.20144849  0.19242724  0.80787929     0.12900
H883        H  0.15600502  0.06773762  0.99026153     0.11900
H884        H  0.13165720  0.11225012  0.94648294     0.11200
H885        H  0.12306112  0.16513335  0.88236756     0.16600
H886        H  0.16768936  0.21727303  0.79539038     0.12500
H887        H  0.23388161  0.09053167  0.91138163     0.15300
H888        H  0.18977972  0.04079889  0.00104506     0.15100
C889        C  0.06159955  0.32477503  0.57079177    -0.17800
C890        C  0.07412218  0.29891317  0.59920115    -0.19900
C891        C  0.07680990  0.31268580  0.64431508     0.20700
C892        C  0.06697797  0.35330151  0.66072318    -0.02800
C893        C  0.05455544  0.37974193  0.63191727    -0.05900
C894        C  0.05166130  0.36515702  0.58684602     0.21000
C895        C  0.04489600  0.42052786  0.64844163     0.19200
C896        C  0.04778668  0.43475644  0.69328576    -0.17400
C897        C  0.05989685  0.40832276  0.72188714    -0.19600
C898        C  0.06944111  0.36740642  0.70604208     0.20700
C899        C  0.08124837  0.34018527  0.73491895    -0.32600
C900        C  0.09100706  0.29936994  0.71914322     0.01300
C901        C  0.08905087  0.28652716  0.67337973    -0.24000
C902        C  0.03878853  0.39101681  0.55888864    -0.28500
C903        C  0.02897719  0.43160333  0.57538802     0.07000
C904        C  0.03233501  0.44620500  0.62010988    -0.27200
H905        H  0.05964042  0.31308176  0.53628025     0.11700
H906        H  0.08154968  0.26781059  0.58600780     0.12900
H907        H  0.04050744  0.46610498  0.70640999     0.11900
H908        H  0.06172749  0.41977870  0.75651511     0.11200
H909        H  0.08272525  0.35052476  0.76997883     0.16600
H910        H  0.09702554  0.25617059  0.66040540     0.12500
H911        H  0.03642912  0.37959646  0.52441514     0.15300
H912        H  0.02488776  0.47729599  0.63331815     0.15100
C913        C  0.02338962  0.16232713  0.67672579    -0.17800
C914        C  0.03613525  0.18521688  0.70610536    -0.19900
C915        C  0.05610593  0.17701202  0.70300574     0.20700
C916        C  0.06331308  0.14512601  0.67018821    -0.02800
C917        C  0.05047538  0.12233159  0.64031303    -0.05900
C918        C  0.03041458  0.13103660  0.64361583     0.21000
C919        C  0.05772345  0.09106267  0.60698207     0.19200
C920        C  0.07767800  0.08257642  0.60413577    -0.17400
C921        C  0.09038853  0.10497699  0.63389450    -0.19600
C922        C  0.08336489  0.13639058  0.66686944     0.20700
C923        C  0.09606649  0.15994084  0.69597227    -0.32600
C924        C  0.08901762  0.19281931  0.72764971     0.01300
C925        C  0.06903079  0.20070573  0.73155883    -0.24000
C926        C  0.01776724  0.10833980  0.61367839    -0.28500
C927        C  0.02496400  0.07741687  0.58050190     0.07000
C928        C  0.04487893  0.06887938  0.57712413    -0.27200
H929        H  0.00803396  0.16933131  0.67971041     0.11700
H930        H  0.03037621  0.20954089  0.73111595     0.12900
H931        H  0.08346355  0.05865926  0.57880933     0.11900
H932        H  0.10574398  0.09799940  0.63089199     0.11200
H933        H  0.11151043  0.15415393  0.69293607     0.16600
H934        H  0.06365182  0.22600907  0.75619629     0.12500
H935        H  0.00233269  0.11466428  0.61605604     0.15300
H936        H  0.05029996  0.04484144  0.55141574     0.15100
loop_ 
_geom_bond_atom_site_label_1 
_geom_bond_atom_site_label_2 
_geom_bond_distance 
_geom_bond_site_symmetry_2 
_ccdc_geom_bond_type 
C1            C2   1.418       .  A
C1            C6   1.404       .  A
C1          C900   1.495       .  S
C2            C3   1.407       .  A
C2          C924   1.480       .  S
C3            C4   1.404       .  A
C3            H8   1.084       .  S
C4            C5   1.415       .  A
C4          C876   1.485       .  S
C5            C6   1.405       .  A
C5          C855   1.486       .  S
C6            H7   1.084       .  S
O9          Ni17   1.918   1_455  S
O9           C19   1.280       .  A
O10         Ni17   1.928       .  S
O10          C20   1.282   1_545  A
O11         Ni17   1.923       .  S
O11          C21   1.281       .  A
O12         Ni17   1.920   1_455  S
O12          C22   1.281   1_545  A
O13         Ni18   1.921   1_455  S
O13          C22   1.281       .  A
O14         Ni18   1.918   1_545  S
O14          C21   1.280       .  A
O15         Ni18   1.914       .  S
O15          C20   1.279       .  A
O16         Ni18   1.919   1_445  S
O16          C19   1.280       .  A
Ni17        Ni18   2.392   1_545  S
C19         C927   1.465       .  S
C20         C804   1.470       .  S
C21         C831   1.469       .  S
C22         C783   1.471       .  S
O23         Ni31   1.921       .  S
O23          C33   1.282       .  A
O24         Ni31   1.916   1_455  S
O24          C34   1.281       .  A
O25         Ni31   1.929   1_455  S
O25          C35   1.283       .  A
O26         Ni31   1.922       .  S
O26          C36   1.283       .  A
O27         Ni32   1.917       .  S
O27          C36   1.281       .  A
O28         Ni32   1.914   1_455  S
O28          C35   1.282       .  A
O29         Ni32   1.908   1_455  S
O29          C34   1.280       .  A
O30         Ni32   1.906       .  S
O30          C33   1.280       .  A
Ni31        Ni32   2.387       .  S
C33         C732   1.477       .  S
C34         C708   1.475       .  S
C35         C903   1.487       .  S
C36         C756   1.481       .  S
C37          C38   1.421       .  A
C37          C42   1.403       .  A
C37         C711   1.480       .  S
C38          C39   1.406       .  A
C38         C780   1.498       .  S
C39          C40   1.406       .  A
C39          H44   1.084       .  S
C40          C41   1.418       .  A
C40         C660   1.489       .  S
C41          C42   1.400       .  A
C41         C684   1.486       .  S
C42          H43   1.085       .  S
C45          C46   1.530       .  S
C45          C51   1.543       .  S
C45          C49   1.533       .  S
C45         C564   1.531       .  S
C46          H53   1.086       .  S
C46          C47   1.366   1_554  D
C47          C48   1.548       .  S
C47         C588   1.490       .  S
C48          C52   1.544   1_556  S
C48          C50   1.544       .  S
C48          H54   1.110       .  S
C49          H55   1.086       .  S
C49          C50   1.366   1_554  D
C50         C636   1.485       .  S
C51          H56   1.081       .  S
C51          C52   1.368       .  D
C52         C615   1.484       .  S
C57          C58   1.536       .  S
C57          C63   1.536   1_545  S
C57          C61   1.534       .  S
C57         C540   1.529       .  S
C58          H65   1.086       .  S
C58          C59   1.368   1_545  D
C59          C60   1.545   1_556  S
C59         C471   1.488       .  S
C60          C64   1.539       .  S
C60          C62   1.542   1_565  S
C60          H66   1.111       .  S
C61          H67   1.087   1_556  S
C61          C62   1.366   1_556  D
C62         C492   1.479       .  S
C63          H68   1.081   1_556  S
C63          C64   1.362   1_556  D
C64         C519   1.474       .  S
C69          C70   1.417       .  A
C69          C74   1.402       .  A
C69         C567   1.484       .  S
C70          C71   1.406       .  A
C70         C495   1.483       .  S
C71          C72   1.404       .  A
C71          H76   1.084       .  S
C72          C73   1.415       .  A
C72         C444   1.483       .  S
C73          C74   1.401       .  A
C73         C423   1.481       .  S
C74          H75   1.085       .  S
C77          C78   1.413       .  A
C77          C82   1.404       .  A
C77         C591   1.476       .  S
C78          C79   1.404       .  A
C78         C468   1.485       .  S
C79          C80   1.405       .  A
C79          H84   1.084       .  S
C80          C81   1.415       .  A
C80         C372   1.483       .  S
C81          C82   1.402       .  A
C81         C396   1.481       .  S
C82          H83   1.084       .  S
C85          C86   1.419       .  A
C85          C90   1.402       .  A
C85         C324   1.479       .  S
C86          C87   1.408       .  A
C86         C351   1.494       .  S
C87          C88   1.407       .  A
C87          H92   1.084       .  S
C88          C89   1.412       .  A
C88         C276   1.481       .  S
C89          C90   1.400       .  A
C89         C300   1.481       .  S
C90          H91   1.085       .  S
C93          C94   1.536   1_566  S
C93          C99   1.541       .  S
C93          C97   1.533   1_556  S
C93         C303   1.532       .  S
C94         H101   1.087       .  S
C94          C95   1.366       .  D
C95          C96   1.545       .  S
C95         C252   1.482       .  S
C96         C100   1.546   1_554  S
C96          C98   1.542   1_545  S
C96         H102   1.111       .  S
C97         H103   1.087       .  S
C97          C98   1.364       .  D
C98         C663   1.481       .  S
C99         H104   1.081   1_565  S
C99         C100   1.367   1_565  D
C100        C879   1.489       .  S
C105        C106   1.420       .  A
C105        C110   1.406       .  A
C105        C180   1.488       .  S
C106        C107   1.407       .  A
C106        C255   1.489       .  S
C107        C108   1.403       .  A
C107        H112   1.084       .  S
C108        C109   1.413       .  A
C108        C231   1.479       .  S
C109        C110   1.403       .  A
C109        C207   1.485       .  S
C110        H111   1.084       .  S
C113        C114   1.539       .  S
C113        C119   1.529   1_556  S
C113        C117   1.536   1_556  S
C113        C852   1.528       .  S
C114        H121   1.082       .  S
C114        C115   1.364       .  D
C115        C116   1.544   1_556  S
C115        C279   1.483       .  S
C116        C120   1.542       .  S
C116        C118   1.543       .  S
C116        H122   1.111       .  S
C117        H123   1.086       .  S
C117        C118   1.367       .  D
C118        C183   1.482       .  S
C119        H124   1.087       .  S
C119        C120   1.364       .  D
C120        C687   1.475       .  S
O125       Ni133   1.917       .  S
O125        C135   1.281       .  A
O126       Ni133   1.918       .  S
O126        C136   1.281   1_565  A
O127       Ni133   1.914       .  S
O127        C137   1.279   1_565  A
O128       Ni133   1.920       .  S
O128        C138   1.283       .  A
O129       Ni134   1.911   1_565  S
O129        C138   1.280       .  A
O130       Ni134   1.921       .  S
O130        C137   1.281       .  A
O131       Ni134   1.922       .  S
O131        C136   1.282       .  A
O132       Ni134   1.917   1_565  S
O132        C135   1.281       .  A
Ni133      Ni134   2.391   1_565  S
C135        C375   1.475       .  S
C136        C228   1.473       .  S
C137        C447   1.465       .  S
C138        C327   1.476       .  S
O139       Ni147   1.923       .  S
O139        C149   1.281       .  A
O140       Ni147   1.912       .  S
O140        C150   1.280       .  A
O141       Ni147   1.923       .  S
O141        C151   1.283       .  A
O142       Ni147   1.925       .  S
O142        C152   1.282       .  A
O143       Ni148   1.916       .  S
O143        C152   1.280       .  A
O144       Ni148   1.917       .  S
O144        C151   1.281       .  A
O145       Ni148   1.925       .  S
O145        C150   1.284       .  A
O146       Ni148   1.920       .  S
O146        C149   1.281       .  A
Ni147      Ni148   2.389       .  S
C149        C348   1.470       .  S
C150        C420   1.481       .  S
C151        C204   1.479       .  S
C152        C399   1.471       .  S
C153        C154   1.419       .  A
C153        C158   1.402       .  A
C153        C828   1.491       .  S
C154        C155   1.406       .  A
C154        C735   1.484       .  S
C155        C156   1.402       .  A
C155        H160   1.084       .  S
C156        C157   1.418       .  A
C156        C639   1.492       .  S
C157        C158   1.406       .  A
C157        C543   1.482       .  S
C158        H159   1.084       .  S
C161        C162   1.418       .  A
C161        C166   1.404       .  A
C161        C807   1.487       .  S
C162        C163   1.409       .  A
C162        C759   1.487       .  S
C163        C164   1.404       .  A
C163        H168   1.084       .  S
C164        C165   1.415       .  A
C164        C612   1.492       .  S
C165        C166   1.404       .  A
C165        C516   1.479       .  S
C166        H167   1.084       .  S
C169        C170   1.401       .  A
C169        C174   1.404       .  A
C169        H185   1.083       .  S
C170        C171   1.404       .  A
C170        H186   1.084       .  S
C171        C181   1.404       .  A
C171        C172   1.411       .  A
C172        C178   1.413       .  A
C172        C173   1.413       .  A
C173        C175   1.411       .  A
C173        C174   1.413       .  A
C174        C182   1.407       .  A
C175        C184   1.401       .  A
C175        C176   1.403       .  A
C176        C177   1.399       .  A
C176        H187   1.084       .  S
C177        C178   1.403       .  A
C177        H188   1.084       .  S
C178        C179   1.403       .  A
C179        C180   1.405       .  A
C179        H189   1.084       .  S
C180        C181   1.408       .  A
C181        H190   1.084       .  S
C182        C183   1.404       .  A
C182        H191   1.081       .  S
C183        C184   1.405       .  A
C184        H192   1.085       .  S
C193        C194   1.398       .  A
C193        C198   1.403       .  A
C193        H209   1.084       .  S
C194        C195   1.403       .  A
C194        H210   1.084       .  S
C195        C205   1.403       .  A
C195        C196   1.412       .  A
C196        C202   1.411       .  A
C196        C197   1.413       .  A
C197        C199   1.412       .  A
C197        C198   1.411       .  A
C198        C206   1.402       .  A
C199        C208   1.405       .  A
C199        C200   1.404       .  A
C200        C201   1.401       .  A
C200        H211   1.084       .  S
C201        C202   1.405       .  A
C201        H212   1.083       .  S
C202        C203   1.405       .  A
C203        C204   1.408       .  A
C203        H213   1.084       .  S
C204        C205   1.405       .  A
C205        H214   1.084       .  S
C206        C207   1.404       .  A
C206        H215   1.085       .  S
C207        C208   1.406       .  A
C208        H216   1.082       .  S
C217        C218   1.400       .  A
C217        C222   1.403       .  A
C217        H233   1.084       .  S
C218        C219   1.404       .  A
C218        H234   1.084       .  S
C219        C229   1.404       .  A
C219        C220   1.412       .  A
C220        C226   1.412       .  A
C220        C221   1.412       .  A
C221        C223   1.412       .  A
C221        C222   1.412       .  A
C222        C230   1.403       .  A
C223        C232   1.404       .  A
C223        C224   1.403       .  A
C224        C225   1.400       .  A
C224        H235   1.084       .  S
C225        C226   1.404       .  A
C225        H236   1.083       .  S
C226        C227   1.404       .  A
C227        C228   1.404       .  A
C227        H237   1.084       .  S
C228        C229   1.405       .  A
C229        H238   1.085       .  S
C230        C231   1.403       .  A
C230        H239   1.084       .  S
C231        C232   1.403       .  A
C232        H240   1.084       .  S
C241        C242   1.399       .  A
C241        C246   1.403       .  A
C241        H257   1.084       .  S
C242        C243   1.404       .  A
C242        H258   1.084       .  S
C243        C253   1.404       .  A
C243        C244   1.412       .  A
C244        C250   1.413       .  A
C244        C245   1.414       .  A
C245        C247   1.412       .  A
C245        C246   1.412       .  A
C246        C254   1.404       .  A
C247        C256   1.406       .  A
C247        C248   1.404       .  A
C248        C249   1.401       .  A
C248        H259   1.083       .  S
C249        C250   1.404       .  A
C249        H260   1.083       .  S
C250        C251   1.408       .  A
C251        C252   1.405       .  A
C251        H261   1.084       .  S
C252        C253   1.405       .  A
C253        H262   1.084       .  S
C254        C255   1.406       .  A
C254        H263   1.084       .  S
C255        C256   1.407       .  A
C256        H264   1.084       .  S
C265        C266   1.399       .  A
C265        C270   1.404       .  A
C265        H281   1.083       .  S
C266        C267   1.403       .  A
C266        H282   1.084       .  S
C267        C277   1.402       .  A
C267        C268   1.412       .  A
C268        C274   1.412       .  A
C268        C269   1.412       .  A
C269        C271   1.413       .  A
C269        C270   1.411       .  A
C270        C278   1.401       .  A
C271        C280   1.406       .  A
C271        C272   1.403       .  A
C272        C273   1.400       .  A
C272        H283   1.084       .  S
C273        C274   1.404       .  A
C273        H284   1.083       .  S
C274        C275   1.404       .  A
C275        C276   1.404       .  A
C275        H285   1.084       .  S
C276        C277   1.405       .  A
C277        H286   1.084       .  S
C278        C279   1.408       .  A
C278        H287   1.084       .  S
C279        C280   1.403       .  A
C280        H288   1.081   1_556  S
C289        C290   1.399       .  A
C289        C294   1.405       .  A
C289        H305   1.084       .  S
C290        C291   1.403       .  A
C290        H306   1.083       .  S
C291        C301   1.403       .  A
C291        C292   1.412       .  A
C292        C298   1.413       .  A
C292        C293   1.413       .  A
C293        C295   1.409       .  A
C293        C294   1.410       .  A
C294        C302   1.405       .  A
C295        C304   1.402       .  A
C295        C296   1.404       .  A
C296        C297   1.399       .  A
C296        H307   1.084   1_556  S
C297        C298   1.403       .  A
C297        H308   1.084       .  S
C298        C299   1.404       .  A
C299        C300   1.404       .  A
C299        H309   1.084       .  S
C300        C301   1.404       .  A
C301        H310   1.084       .  S
C302        C303   1.414       .  A
C302        H311   1.077       .  S
C303        C304   1.411       .  A
C304        H312   1.084   1_556  S
C313        C314   1.397       .  A
C313        C318   1.402       .  A
C313        H329   1.084       .  S
C314        C315   1.402       .  A
C314        H330   1.084       .  S
C315        C325   1.398       .  A
C315        C316   1.411       .  A
C316        C322   1.413       .  A
C316        C317   1.410       .  A
C317        C319   1.411       .  A
C317        C318   1.412       .  A
C318        C326   1.401       .  A
C319        C328   1.402       .  A
C319        C320   1.404       .  A
C320        C321   1.400       .  A
C320        H331   1.084       .  S
C321        C322   1.404       .  A
C321        H332   1.083       .  S
C322        C323   1.404       .  A
C323        C324   1.405       .  A
C323        H333   1.084       .  S
C324        C325   1.403       .  A
C325        H334   1.084       .  S
C326        C327   1.404       .  A
C326        H335   1.084       .  S
C327        C328   1.408       .  A
C328        H336   1.084       .  S
C337        C338   1.401       .  A
C337        C342   1.404       .  A
C337        H353   1.084       .  S
C338        C339   1.404       .  A
C338        H354   1.083       .  S
C339        C349   1.406       .  A
C339        C340   1.413       .  A
C340        C346   1.412       .  A
C340        C341   1.414       .  A
C341        C343   1.411       .  A
C341        C342   1.411       .  A
C342        C350   1.406       .  A
C343        C352   1.404       .  A
C343        C344   1.404       .  A
C344        C345   1.400       .  A
C344        H355   1.084       .  S
C345        C346   1.403       .  A
C345        H356   1.084       .  S
C346        C347   1.404       .  A
C347        C348   1.403       .  A
C347        H357   1.085       .  S
C348        C349   1.404       .  A
C349        H358   1.084       .  S
C350        C351   1.407       .  A
C350        H359   1.084       .  S
C351        C352   1.409       .  A
C352        H360   1.084       .  S
C361        C362   1.398       .  A
C361        C366   1.403       .  A
C361        H377   1.084       .  S
C362        C363   1.403       .  A
C362        H378   1.084       .  S
C363        C373   1.401       .  A
C363        C364   1.411       .  A
C364        C370   1.412       .  A
C364        C365   1.411       .  A
C365        C367   1.411       .  A
C365        C366   1.412       .  A
C366        C374   1.402       .  A
C367        C376   1.403       .  A
C367        C368   1.404       .  A
C368        C369   1.399       .  A
C368        H379   1.084       .  S
C369        C370   1.403       .  A
C369        H380   1.084       .  S
C370        C371   1.404       .  A
C371        C372   1.405       .  A
C371        H381   1.084       .  S
C372        C373   1.405       .  A
C373        H382   1.083       .  S
C374        C375   1.405       .  A
C374        H383   1.084       .  S
C375        C376   1.406       .  A
C376        H384   1.084       .  S
C385        C386   1.398       .  A
C385        C390   1.403       .  A
C385        H401   1.084       .  S
C386        C387   1.403       .  A
C386        H402   1.084       .  S
C387        C397   1.402       .  A
C387        C388   1.412       .  A
C388        C394   1.412       .  A
C388        C389   1.413       .  A
C389        C391   1.413       .  A
C389        C390   1.412       .  A
C390        C398   1.402       .  A
C391        C400   1.407       .  A
C391        C392   1.404       .  A
C392        C393   1.401       .  A
C392        H403   1.083       .  S
C393        C394   1.404       .  A
C393        H404   1.083       .  S
C394        C395   1.406       .  A
C395        C396   1.405       .  A
C395        H405   1.084       .  S
C396        C397   1.403       .  A
C397        H406   1.085       .  S
C398        C399   1.403       .  A
C398        H407   1.085       .  S
C399        C400   1.405       .  A
C400        H408   1.084       .  S
C409        C410   1.399       .  A
C409        C414   1.403       .  A
C409        H425   1.084       .  S
C410        C411   1.404       .  A
C410        H426   1.083       .  S
C411        C421   1.404       .  A
C411        C412   1.412       .  A
C412        C418   1.411       .  A
C412        C413   1.411       .  A
C413        C415   1.412       .  A
C413        C414   1.411       .  A
C414        C422   1.401       .  A
C415        C424   1.402       .  A
C415        C416   1.403       .  A
C416        C417   1.399       .  A
C416        H427   1.084       .  S
C417        C418   1.404       .  A
C417        H428   1.084       .  S
C418        C419   1.402       .  A
C419        C420   1.408       .  A
C419        H429   1.084       .  S
C420        C421   1.406       .  A
C421        H430   1.084       .  S
C422        C423   1.405       .  A
C422        H431   1.084       .  S
C423        C424   1.405       .  A
C424        H432   1.084       .  S
C433        C434   1.399       .  A
C433        C438   1.403       .  A
C433        H449   1.084       .  S
C434        C435   1.403       .  A
C434        H450   1.084       .  S
C435        C445   1.404       .  A
C435        C436   1.412       .  A
C436        C442   1.412       .  A
C436        C437   1.412       .  A
C437        C439   1.413       .  A
C437        C438   1.412       .  A
C438        C446   1.403       .  A
C439        C448   1.404       .  A
C439        C440   1.403       .  A
C440        C441   1.399       .  A
C440        H451   1.084       .  S
C441        C442   1.403       .  A
C441        H452   1.084       .  S
C442        C443   1.402       .  A
C443        C444   1.404       .  A
C443        H453   1.084       .  S
C444        C445   1.406       .  A
C445        H454   1.084       .  S
C446        C447   1.402       .  A
C446        H455   1.085       .  S
C447        C448   1.402       .  A
C448        H456   1.085       .  S
C457        C458   1.400       .  A
C457        C462   1.404       .  A
C457        H473   1.084       .  S
C458        C459   1.403       .  A
C458        H474   1.084       .  S
C459        C469   1.404       .  A
C459        C460   1.412       .  A
C460        C466   1.412       .  A
C460        C461   1.414       .  A
C461        C463   1.412       .  A
C461        C462   1.411       .  A
C462        C470   1.404       .  A
C463        C472   1.406       .  A
C463        C464   1.404       .  A
C464        C465   1.401       .  A
C464        H475   1.084       .  S
C465        C466   1.404       .  A
C465        H476   1.083       .  S
C466        C467   1.406       .  A
C467        C468   1.406       .  A
C467        H477   1.084       .  S
C468        C469   1.405       .  A
C469        H478   1.084       .  S
C470        C471   1.408       .  A
C470        H479   1.084       .  S
C471        C472   1.405       .  A
C472        H480   1.080       .  S
C481        C482   1.398       .  A
C481        C486   1.403       .  A
C481        H497   1.084       .  S
C482        C483   1.403       .  A
C482        H498   1.084       .  S
C483        C493   1.402       .  A
C483        C484   1.411       .  A
C484        C490   1.412       .  A
C484        C485   1.411       .  A
C485        C487   1.412       .  A
C485        C486   1.412       .  A
C486        C494   1.401       .  A
C487        C496   1.403       .  A
C487        C488   1.404       .  A
C488        C489   1.399       .  A
C488        H499   1.084       .  S
C489        C490   1.404       .  A
C489        H500   1.084       .  S
C490        C491   1.404       .  A
C491        C492   1.403       .  A
C491        H501   1.080       .  S
C492        C493   1.405       .  A
C493        H502   1.084       .  S
C494        C495   1.405       .  A
C494        H503   1.084       .  S
C495        C496   1.405       .  A
C496        H504   1.084       .  S
C505        C506   1.396       .  A
C505        C510   1.402       .  A
C505        H521   1.084       .  S
C506        C507   1.401       .  A
C506        H522   1.084       .  S
C507        C517   1.397       .  A
C507        C508   1.412       .  A
C508        C514   1.412       .  A
C508        C509   1.411       .  A
C509        C511   1.414       .  A
C509        C510   1.411       .  A
C510        C518   1.397       .  A
C511        C520   1.407       .  A
C511        C512   1.404       .  A
C512        C513   1.402       .  A
C512        H523   1.083       .  S
C513        C514   1.404       .  A
C513        H524   1.083       .  S
C514        C515   1.406       .  A
C515        C516   1.405       .  A
C515        H525   1.084       .  S
C516        C517   1.402       .  A
C517        H526   1.085       .  S
C518        C519   1.403       .  A
C518        H527   1.085   1_554  S
C519        C520   1.404       .  A
C520        H528   1.084       .  S
C529        C530   1.397       .  A
C529        C534   1.402       .  A
C529        H545   1.084       .  S
C530        C531   1.404       .  A
C530        H546   1.084       .  S
C531        C541   1.400       .  A
C531        C532   1.408       .  A
C532        C538   1.410       .  A
C532        C533   1.410       .  A
C533        C535   1.411       .  A
C533        C534   1.411       .  A
C534        C542   1.399       .  A
C535        C544   1.401       .  A
C535        C536   1.403       .  A
C536        C537   1.399       .  A
C536        H547   1.084       .  S
C537        C538   1.403       .  A
C537        H548   1.083       .  S
C538        C539   1.402       .  A
C539        C540   1.410       .  A
C539        H549   1.084       .  S
C540        C541   1.414       .  A
C541        H550   1.076       .  S
C542        C543   1.405       .  A
C542        H551   1.084       .  S
C543        C544   1.406       .  A
C544        H552   1.084       .  S
C553        C554   1.399       .  A
C553        C558   1.403       .  A
C553        H569   1.084       .  S
C554        C555   1.404       .  A
C554        H570   1.084       .  S
C555        C565   1.404       .  A
C555        C556   1.411       .  A
C556        C562   1.408       .  A
C556        C557   1.413       .  A
C557        C559   1.413       .  A
C557        C558   1.411       .  A
C558        C566   1.401       .  A
C559        C568   1.405       .  A
C559        C560   1.403       .  A
C560        C561   1.400       .  A
C560        H571   1.084       .  S
C561        C562   1.404       .  A
C561        H572   1.084       .  S
C562        C563   1.402       .  A
C563        C564   1.412       .  A
C563        H573   1.084       .  S
C564        C565   1.412       .  A
C565        H574   1.077       .  S
C566        C567   1.405       .  A
C566        H575   1.084       .  S
C567        C568   1.405       .  A
C568        H576   1.084       .  S
C577        C578   1.396       .  A
C577        C582   1.402       .  A
C577        H593   1.084       .  S
C578        C579   1.403       .  A
C578        H594   1.084       .  S
C579        C589   1.399       .  A
C579        C580   1.410       .  A
C580        C586   1.412       .  A
C580        C581   1.412       .  A
C581        C583   1.413       .  A
C581        C582   1.412       .  A
C582        C590   1.399       .  A
C583        C592   1.407       .  A
C583        C584   1.405       .  A
C584        C585   1.402       .  A
C584        H595   1.083       .  S
C585        C586   1.405       .  A
C585        H596   1.083       .  S
C586        C587   1.409       .  A
C587        C588   1.407       .  A
C587        H597   1.081       .  S
C588        C589   1.408       .  A
C589        H598   1.084   1_556  S
C590        C591   1.401       .  A
C590        H599   1.085       .  S
C591        C592   1.405       .  A
C592        H600   1.084       .  S
C601        C602   1.402       .  A
C601        C606   1.404       .  A
C601        H617   1.083       .  S
C602        C603   1.404       .  A
C602        H618   1.083       .  S
C603        C613   1.407       .  A
C603        C604   1.412       .  A
C604        C610   1.412       .  A
C604        C605   1.415       .  A
C605        C607   1.411       .  A
C605        C606   1.413       .  A
C606        C614   1.408       .  A
C607        C616   1.404       .  A
C607        C608   1.404       .  A
C608        C609   1.399       .  A
C608        H619   1.084       .  S
C609        C610   1.403       .  A
C609        H620   1.084       .  S
C610        C611   1.404       .  A
C611        C612   1.407       .  A
C611        H621   1.084       .  S
C612        C613   1.407       .  A
C613        H622   1.084       .  S
C614        C615   1.405       .  A
C614        H623   1.084       .  S
C615        C616   1.406       .  A
C616        H624   1.084       .  S
C625        C626   1.399       .  A
C625        C630   1.403       .  A
C625        H641   1.084       .  S
C626        C627   1.403       .  A
C626        H642   1.084       .  S
C627        C637   1.402       .  A
C627        C628   1.411       .  A
C628        C634   1.412       .  A
C628        C629   1.413       .  A
C629        C631   1.411       .  A
C629        C630   1.412       .  A
C630        C638   1.403       .  A
C631        C640   1.405       .  A
C631        C632   1.404       .  A
C632        C633   1.401       .  A
C632        H643   1.083       .  S
C633        C634   1.404       .  A
C633        H644   1.084       .  S
C634        C635   1.406       .  A
C635        C636   1.405       .  A
C635        H645   1.081       .  S
C636        C637   1.407       .  A
C637        H646   1.084   1_556  S
C638        C639   1.407       .  A
C638        H647   1.084       .  S
C639        C640   1.408       .  A
C640        H648   1.084       .  S
C649        C650   1.399       .  A
C649        C654   1.404       .  A
C649        H665   1.083       .  S
C650        C651   1.403       .  A
C650        H666   1.084       .  S
C651        C661   1.402       .  A
C651        C652   1.411       .  A
C652        C658   1.411       .  A
C652        C653   1.411       .  A
C653        C655   1.412       .  A
C653        C654   1.411       .  A
C654        C662   1.402       .  A
C655        C664   1.403       .  A
C655        C656   1.403       .  A
C656        C657   1.399       .  A
C656        H667   1.084       .  S
C657        C658   1.403       .  A
C657        H668   1.084       .  S
C658        C659   1.401       .  A
C659        C660   1.407       .  A
C659        H669   1.084       .  S
C660        C661   1.407       .  A
C661        H670   1.084       .  S
C662        C663   1.407       .  A
C662        H671   1.084       .  S
C663        C664   1.402       .  A
C664        H672   1.079       .  S
C673        C674   1.397       .  A
C673        C678   1.403       .  A
C673        H689   1.084       .  S
C674        C675   1.402       .  A
C674        H690   1.084       .  S
C675        C685   1.401       .  A
C675        C676   1.412       .  A
C676        C682   1.411       .  A
C676        C677   1.412       .  A
C677        C679   1.414       .  A
C677        C678   1.411       .  A
C678        C686   1.399       .  A
C679        C688   1.407       .  A
C679        C680   1.404       .  A
C680        C681   1.401       .  A
C680        H691   1.083       .  S
C681        C682   1.405       .  A
C681        H692   1.083       .  S
C682        C683   1.405       .  A
C683        C684   1.407       .  A
C683        H693   1.084       .  S
C684        C685   1.404       .  A
C685        H694   1.084       .  S
C686        C687   1.403       .  A
C686        H695   1.085       .  S
C687        C688   1.404       .  A
C688        H696   1.084       .  S
C697        C698   1.398       .  A
C697        C702   1.403       .  A
C697        H713   1.084       .  S
C698        C699   1.403       .  A
C698        H714   1.084       .  S
C699        C709   1.402       .  A
C699        C700   1.412       .  A
C700        C706   1.410       .  A
C700        C701   1.409       .  A
C701        C703   1.412       .  A
C701        C702   1.411       .  A
C702        C710   1.400       .  A
C703        C712   1.400       .  A
C703        C704   1.402       .  A
C704        C705   1.397       .  A
C704        H715   1.084       .  S
C705        C706   1.403       .  A
C705        H716   1.084       .  S
C706        C707   1.399       .  A
C707        C708   1.406       .  A
C707        H717   1.084       .  S
C708        C709   1.406       .  A
C709        H718   1.084       .  S
C710        C711   1.406       .  A
C710        H719   1.084       .  S
C711        C712   1.404       .  A
C712        H720   1.084       .  S
C721        C722   1.396       .  A
C721        C726   1.402       .  A
C721        H737   1.084       .  S
C722        C723   1.402       .  A
C722        H738   1.084       .  S
C723        C733   1.397       .  A
C723        C724   1.411       .  A
C724        C730   1.412       .  A
C724        C725   1.409       .  A
C725        C727   1.411       .  A
C725        C726   1.411       .  A
C726        C734   1.397       .  A
C727        C736   1.402       .  A
C727        C728   1.403       .  A
C728        C729   1.400       .  A
C728        H739   1.084       .  S
C729        C730   1.404       .  A
C729        H740   1.083       .  S
C730        C731   1.404       .  A
C731        C732   1.407       .  A
C731        H741   1.084       .  S
C732        C733   1.406       .  A
C733        H742   1.084       .  S
C734        C735   1.404       .  A
C734        H743   1.084       .  S
C735        C736   1.407       .  A
C736        H744   1.084       .  S
C745        C746   1.399       .  A
C745        C750   1.403       .  A
C745        H761   1.084       .  S
C746        C747   1.403       .  A
C746        H762   1.084       .  S
C747        C757   1.403       .  A
C747        C748   1.411       .  A
C748        C754   1.412       .  A
C748        C749   1.412       .  A
C749        C751   1.411       .  A
C749        C750   1.412       .  A
C750        C758   1.403       .  A
C751        C760   1.403       .  A
C751        C752   1.403       .  A
C752        C753   1.399       .  A
C752        H763   1.084       .  S
C753        C754   1.404       .  A
C753        H764   1.084       .  S
C754        C755   1.404       .  A
C755        C756   1.408       .  A
C755        H765   1.084       .  S
C756        C757   1.407       .  A
C757        H766   1.084       .  S
C758        C759   1.405       .  A
C758        H767   1.084       .  S
C759        C760   1.407       .  A
C760        H768   1.084       .  S
C769        C770   1.400       .  A
C769        C774   1.404       .  A
C769        H785   1.083       .  S
C770        C771   1.404       .  A
C770        H786   1.084       .  S
C771        C781   1.404       .  A
C771        C772   1.410       .  A
C772        C778   1.410       .  A
C772        C773   1.413       .  A
C773        C775   1.412       .  A
C773        C774   1.413       .  A
C774        C782   1.405       .  A
C775        C784   1.404       .  A
C775        C776   1.404       .  A
C776        C777   1.400       .  A
C776        H787   1.084       .  S
C777        C778   1.404       .  A
C777        H788   1.084       .  S
C778        C779   1.403       .  A
C779        C780   1.410       .  A
C779        H789   1.083       .  S
C780        C781   1.410       .  A
C781        H790   1.084       .  S
C782        C783   1.404       .  A
C782        H791   1.085       .  S
C783        C784   1.403       .  A
C784        H792   1.085       .  S
C793        C794   1.399       .  A
C793        C798   1.403       .  A
C793        H809   1.084       .  S
C794        C795   1.403       .  A
C794        H810   1.084       .  S
C795        C805   1.404       .  A
C795        C796   1.412       .  A
C796        C802   1.413       .  A
C796        C797   1.414       .  A
C797        C799   1.412       .  A
C797        C798   1.412       .  A
C798        C806   1.405       .  A
C799        C808   1.405       .  A
C799        C800   1.404       .  A
C800        C801   1.401       .  A
C800        H811   1.083       .  S
C801        C802   1.404       .  A
C801        H812   1.084       .  S
C802        C803   1.406       .  A
C803        C804   1.404       .  A
C803        H813   1.085       .  S
C804        C805   1.403       .  A
C805        H814   1.085       .  S
C806        C807   1.405       .  A
C806        H815   1.084       .  S
C807        C808   1.407       .  A
C808        H816   1.084       .  S
C817        C818   1.399       .  A
C817        C822   1.403       .  A
C817        H833   1.084       .  S
C818        C819   1.403       .  A
C818        H834   1.084       .  S
C819        C829   1.403       .  A
C819        C820   1.411       .  A
C820        C826   1.412       .  A
C820        C821   1.413       .  A
C821        C823   1.413       .  A
C821        C822   1.412       .  A
C822        C830   1.404       .  A
C823        C832   1.406       .  A
C823        C824   1.404       .  A
C824        C825   1.401       .  A
C824        H835   1.084       .  S
C825        C826   1.404       .  A
C825        H836   1.083       .  S
C826        C827   1.405       .  A
C827        C828   1.407       .  A
C827        H837   1.084       .  S
C828        C829   1.407       .  A
C829        H838   1.084       .  S
C830        C831   1.403       .  A
C830        H839   1.085       .  S
C831        C832   1.403       .  A
C832        H840   1.085       .  S
C841        C842   1.400       .  A
C841        C846   1.404       .  A
C841        H857   1.084       .  S
C842        C843   1.404       .  A
C842        H858   1.083   1_556  S
C843        C853   1.404       .  A
C843        C844   1.410       .  A
C844        C850   1.409       .  A
C844        C845   1.411       .  A
C845        C847   1.411       .  A
C845        C846   1.411       .  A
C846        C854   1.404       .  A
C847        C856   1.399       .  A
C847        C848   1.402       .  A
C848        C849   1.396       .  A
C848        H859   1.084       .  S
C849        C850   1.403       .  A
C849        H860   1.084       .  S
C850        C851   1.399       .  A
C851        C852   1.411       .  A
C851        H861   1.078       .  S
C852        C853   1.412       .  A
C853        H862   1.084   1_556  S
C854        C855   1.408       .  A
C854        H863   1.084       .  S
C855        C856   1.405       .  A
C856        H864   1.084       .  S
C865        C866   1.398       .  A
C865        C870   1.403       .  A
C865        H881   1.084       .  S
C866        C867   1.403       .  A
C866        H882   1.084       .  S
C867        C877   1.403       .  A
C867        C868   1.412       .  A
C868        C874   1.412       .  A
C868        C869   1.414       .  A
C869        C871   1.412       .  A
C869        C870   1.410       .  A
C870        C878   1.402       .  A
C871        C880   1.409       .  A
C871        C872   1.405       .  A
C872        C873   1.402       .  A
C872        H883   1.084       .  S
C873        C874   1.405       .  A
C873        H884   1.083       .  S
C874        C875   1.407       .  A
C875        C876   1.406       .  A
C875        H885   1.084       .  S
C876        C877   1.404       .  A
C877        H886   1.084       .  S
C878        C879   1.407       .  A
C878        H887   1.085       .  S
C879        C880   1.406       .  A
C880        H888   1.079   1_556  S
C889        C890   1.403       .  A
C889        C894   1.405       .  A
C889        H905   1.083       .  S
C890        C891   1.405       .  A
C890        H906   1.084       .  S
C891        C901   1.407       .  A
C891        C892   1.411       .  A
C892        C898   1.411       .  A
C892        C893   1.414       .  A
C893        C895   1.410       .  A
C893        C894   1.412       .  A
C894        C902   1.410       .  A
C895        C904   1.400       .  A
C895        C896   1.403       .  A
C896        C897   1.397       .  A
C896        H907   1.084       .  S
C897        C898   1.402       .  A
C897        H908   1.084       .  S
C898        C899   1.402       .  A
C899        C900   1.406       .  A
C899        H909   1.084       .  S
C900        C901   1.411       .  A
C901        H910   1.083       .  S
C902        C903   1.410       .  A
C902        H911   1.084       .  S
C903        C904   1.407       .  A
C904        H912   1.084       .  S
C913        C914   1.399       .  A
C913        C918   1.404       .  A
C913        H929   1.084       .  S
C914        C915   1.403       .  A
C914        H930   1.084       .  S
C915        C925   1.403       .  A
C915        C916   1.413       .  A
C916        C922   1.412       .  A
C916        C917   1.411       .  A
C917        C919   1.413       .  A
C917        C918   1.412       .  A
C918        C926   1.403       .  A
C919        C928   1.404       .  A
C919        C920   1.403       .  A
C920        C921   1.399       .  A
C920        H931   1.084       .  S
C921        C922   1.403       .  A
C921        H932   1.084       .  S
C922        C923   1.401       .  A
C923        C924   1.404       .  A
C923        H933   1.084       .  S
C924        C925   1.405       .  A
C925        H934   1.084       .  S
C926        C927   1.403       .  A
C926        H935   1.085       .  S
C927        C928   1.402       .  A
C928        H936   1.085       .  S
