geometry optimzed in LAMMPS
_audit_creation_date              2020-12-01 
_audit_creation_method            'lammps2cif' 
_symmetry_space_group_name_H-M    'P1' 
_symmetry_Int_Tables_number       1 
_symmetry_cell_setting            triclinic 
loop_ 
_symmetry_equiv_pos_as_xyz 
  x,y,z 
_cell_length_a                    50.04135632 
_cell_length_b                    50.07371770708672 
_cell_length_c                    49.36400251131675 
_cell_angle_alpha                 89.69034390142741 
_cell_angle_beta                  89.98444653639217 
_cell_angle_gamma                 120.03890187736361 
loop_ 
_atom_site_label 
_atom_site_type_symbol 
_atom_site_fract_x 
_atom_site_fract_y 
_atom_site_fract_z 
_atom_site_charge 
N1          N  0.51015422  0.29412560  0.42579827    -0.27200
N2          N  0.50279462  0.30258979  0.40289042    -0.35000
C3          C  0.50003257  0.32754089  0.40737854     0.01100
C4          C  0.50614624  0.33542215  0.43443154     0.07200
C5          C  0.51262425  0.31376259  0.44548764    -0.05900
H6          H  0.49441720  0.33932413  0.39192710     0.07800
H7          H  0.51810069  0.31200195  0.46638389     0.09000
Cu8        Cu  0.49791398  0.28057958  0.36629648     0.44200
Cu9        Cu  0.51498565  0.25532520  0.42872926     0.42000
Cu10       Cu  0.50871123  0.21449017  0.36523850     0.43900
N11         N  0.49772932  0.25825291  0.33103515    -0.34600
N12         N  0.50183870  0.23415154  0.33029079    -0.28800
C13         C  0.50111733  0.22586421  0.30421639    -0.04900
C14         C  0.49646712  0.24584228  0.28789757     0.07300
C15         C  0.49442764  0.26600392  0.30564325     0.01100
H16         H  0.50408500  0.20694900  0.29762669     0.08700
H17         H  0.49097896  0.28510170  0.30050939     0.07800
N18         N  0.51381948  0.19955207  0.40358494    -0.36000
N19         N  0.51588735  0.21433049  0.42632393    -0.28200
C20         C  0.51777514  0.19817326  0.44734497    -0.03400
C21         C  0.51691018  0.17181098  0.43760000     0.05200
C22         C  0.51449032  0.17361721  0.40967406     0.03300
H23         H  0.51959553  0.20526787  0.46822651     0.08400
H24         H  0.51265890  0.15699003  0.39480294     0.07200
N25         N  0.74237548  0.52689977  0.42165167    -0.27200
N26         N  0.72931417  0.52439247  0.39779515    -0.35000
C27         C  0.70146695  0.52163107  0.40129563     0.01100
C28         C  0.69625163  0.52231788  0.42871926     0.07200
C29         C  0.72287660  0.52594268  0.44106528    -0.05900
H30         H  0.68604990  0.51897222  0.38486399     0.07800
H31         H  0.72726911  0.52663804  0.46257344     0.09000
Cu32       Cu  0.74793283  0.52338960  0.36080220     0.44200
Cu33       Cu  0.78514592  0.52895525  0.42613813     0.42000
Cu34       Cu  0.81950552  0.52617584  0.36096366     0.43900
N35         N  0.77015916  0.52405608  0.32542752    -0.34600
N36         N  0.79710939  0.52525711  0.32532676    -0.28800
C37         C  0.80594624  0.52564459  0.29950402    -0.04900
C38         C  0.78336574  0.52468029  0.28263279     0.07300
C39         C  0.76101752  0.52368625  0.29976739     0.01100
H40         H  0.82719382  0.52657058  0.29349962     0.08700
H41         H  0.73967066  0.52268994  0.29407355     0.07800
N42         N  0.83782425  0.52603039  0.39865190    -0.36000
N43         N  0.82617793  0.52735739  0.42234661    -0.28200
C44         C  0.84442501  0.52654865  0.44215288    -0.03400
C45         C  0.86853092  0.52439904  0.43029491     0.05200
C46         C  0.86338507  0.52421775  0.40270312     0.03300
H47         H  0.84012947  0.52694197  0.46357122     0.08400
H48         H  0.87730182  0.52307762  0.38648393     0.07200
N49         N  0.75042026  0.22175459  0.43099881    -0.27200
N50         N  0.74071133  0.20447847  0.40902373    -0.35000
C51         C  0.71454142  0.17809688  0.41488888     0.01100
C52         C  0.70708001  0.17870284  0.44180259     0.07200
C53         C  0.73039395  0.20681015  0.45135631    -0.05900
H54         H  0.70141850  0.16016096  0.40029346     0.07800
H55         H  0.73275803  0.21574947  0.47167357     0.09000
Cu56       Cu  0.76160140  0.21788778  0.37122482     0.44200
Cu57       Cu  0.79056564  0.26490189  0.43231901     0.42000
Cu58       Cu  0.83048944  0.29094820  0.36735562     0.43900
N59         N  0.78327248  0.23793726  0.33479683    -0.34600
N60         N  0.80875006  0.26511686  0.33332533    -0.28800
C61         C  0.81622452  0.27273515  0.30710353    -0.04900
C62         C  0.79431604  0.24917767  0.29131637     0.07300
C63         C  0.77379088  0.22748126  0.30955922     0.01100
H64         H  0.83574980  0.29414954  0.30008873     0.08700
H65         H  0.75309678  0.20602879  0.30487431     0.07800
N66         N  0.84707333  0.31446028  0.40345059    -0.36000
N67         N  0.83255188  0.30579977  0.42702779    -0.28200
C68         C  0.84980620  0.32686040  0.44584889    -0.03400
C69         C  0.87655356  0.34966940  0.43349299     0.05200
C70         C  0.87387750  0.34091226  0.40663769     0.03300
H71         H  0.84368113  0.32525727  0.46703810     0.08400
H72         H  0.89011770  0.35295754  0.39041432     0.07200
C73         C  0.00276685  0.49517300  0.51612803     0.02400
C74         C  0.00343573  0.52375869  0.51771937     0.02300
C75         C  0.02829359  0.54858037  0.53096280    -0.18200
C76         C  0.05273382  0.54565961  0.54181571     0.02400
C77         C  0.05294906  0.51770934  0.53851078     0.02300
C78         C  0.02772648  0.49266282  0.52605960    -0.18200
H79         H  0.02746546  0.47097240  0.52413736     0.04400
H80         H  0.02856868  0.57026020  0.53297841     0.04400
N81         N  0.54164940  0.72140554  0.62621985    -0.27200
N82         N  0.54304313  0.71153344  0.65075642    -0.35000
C83         C  0.54088237  0.68377280  0.64897855     0.01100
C84         C  0.53802617  0.67545107  0.62193149     0.07200
C85         C  0.53863875  0.70004785  0.60808709    -0.05900
H86         H  0.54172343  0.67090350  0.66628350     0.07800
H87         H  0.53685405  0.70230901  0.58646578     0.09000
Cu88       Cu  0.54831253  0.73601310  0.68588052     0.44200
Cu89       Cu  0.54365854  0.76351957  0.61925185     0.42000
Cu90       Cu  0.55065021  0.80840351  0.68044994     0.43900
N91         N  0.55371160  0.76335356  0.71902658    -0.34600
N92         N  0.55438715  0.79002841  0.71731091    -0.28800
C93         C  0.55701730  0.80144033  0.74246168    -0.04900
C94         C  0.55805459  0.78087772  0.76078100     0.07300
C95         C  0.55598971  0.75708377  0.74515692     0.01100
H96         H  0.55765313  0.82283647  0.74707656     0.08700
H97         H  0.55546685  0.73634787  0.75226194     0.07800
N98         N  0.54683919  0.82159198  0.64114697    -0.36000
N99         N  0.54479913  0.80577030  0.61909320    -0.28200
C100        C  0.54351408  0.82134531  0.59726541    -0.03400
C101        C  0.54467514  0.84825213  0.60589903     0.05200
C102        C  0.54670672  0.84746991  0.63389064     0.03300
H103        H  0.54169318  0.81347452  0.57664115     0.08400
H104        H  0.54860882  0.86474226  0.64804494     0.07200
N105        N  0.31038881  0.49881025  0.61838088    -0.27200
N106        N  0.32091639  0.49210940  0.64046829    -0.35000
C107        C  0.34743944  0.49271858  0.63447126     0.01100
C108        C  0.35419540  0.50043456  0.60736759     0.07200
C109        C  0.33019809  0.50417272  0.59785080    -0.05900
H110        H  0.36113400  0.48852090  0.64899636     0.07800
H111        H  0.32709818  0.50998137  0.57739554     0.09000
Cu112      Cu  0.30016840  0.48391090  0.67834928     0.44200
Cu113      Cu  0.26904415  0.49946462  0.61636366     0.42000
Cu114      Cu  0.22670003  0.48033373  0.67886373     0.43900
N115        N  0.27599545  0.48018090  0.71364345    -0.34600
N116        N  0.24895631  0.47886794  0.71360145    -0.28800
C117        C  0.24001047  0.47875286  0.73926935    -0.04900
C118        C  0.26252082  0.48012929  0.75634268     0.07300
C119        C  0.28501630  0.48092983  0.73945651     0.01100
H120        H  0.21913591  0.47875868  0.74499338     0.08700
H121        H  0.30677788  0.48302031  0.74541000     0.07800
N122        N  0.20939427  0.48608680  0.64266625    -0.36000
N123        N  0.22508719  0.49424381  0.61966850    -0.28200
C124        C  0.20749509  0.49689412  0.60031907    -0.03400
C125        C  0.17926039  0.48964706  0.61174293     0.05200
C126        C  0.18144575  0.48297062  0.63861162     0.03300
H127        H  0.21448495  0.50300596  0.57941983     0.08400
H128        H  0.16414479  0.47673816  0.65426541     0.07200
N129        N  0.31330451  0.82537912  0.62581506    -0.27200
N130        N  0.32233614  0.83940030  0.64943364    -0.35000
C131        C  0.34905040  0.86605881  0.64603536     0.01100
C132        C  0.35751986  0.86895503  0.61899854     0.07200
C133        C  0.33429075  0.84265046  0.60679778    -0.05900
H134        H  0.36172338  0.88183312  0.66225260     0.07800
H135        H  0.33255295  0.83662847  0.58560078     0.09000
Cu136      Cu  0.29910595  0.82088613  0.68560652     0.44200
Cu137      Cu  0.27265652  0.78345133  0.62071959     0.42000
Cu138      Cu  0.23002924  0.74589094  0.68211845     0.43900
N139        N  0.27461801  0.79579501  0.71943027    -0.34600
N140        N  0.24942073  0.76835188  0.71816723    -0.28800
C141        C  0.24007218  0.75761658  0.74347959    -0.04900
C142        C  0.26044244  0.77928061  0.76151132     0.07300
C143        C  0.28202431  0.80322004  0.74558033     0.01100
H144        H  0.22031908  0.73533893  0.74833809     0.08700
H145        H  0.30202066  0.82416852  0.75241683     0.07800
N146        N  0.21590611  0.72780925  0.64363894    -0.36000
N147        N  0.23121005  0.74162131  0.62125102    -0.28200
C148        C  0.21578259  0.72416959  0.59985251    -0.03400
C149        C  0.18952700  0.69794424  0.60915376     0.05200
C150        C  0.19047804  0.70112908  0.63709555     0.03300
H151        H  0.22341700  0.73008032  0.57906473     0.08400
H152        H  0.17376914  0.68549348  0.65165518     0.07200
C153        C  0.55872285  0.03240495  0.50538643     0.02400
C154        C  0.53089332  0.03326713  0.50464657     0.02300
C155        C  0.50509139  0.01100482  0.51914483    -0.18200
C156        C  0.50639677  0.98770941  0.53399585     0.02400
C157        C  0.53437231  0.98717559  0.53523772     0.02300
C158        C  0.56014366  0.00932200  0.52059001    -0.18200
H159        H  0.58165285  0.00905688  0.52154171     0.04400
H160        H  0.48351105  0.01113073  0.51805587     0.04400
C161        C  0.52829539  0.48143323  0.51757984     0.02400
C162        C  0.55559569  0.51061221  0.51589048     0.02300
C163        C  0.55564080  0.53650157  0.52676683    -0.18200
C164        C  0.52954951  0.53393418  0.53984777     0.02400
C165        C  0.50258072  0.50465554  0.54220503     0.02300
C166        C  0.50220561  0.47885282  0.53073082    -0.18200
H167        H  0.48145334  0.45643710  0.53226729     0.04400
H168        H  0.57635914  0.55895473  0.52523005     0.04400
N169        N  0.73260241  0.51190808  0.11608523    -0.27200
N170        N  0.72243132  0.51736960  0.13890787    -0.35000
C171        C  0.69629249  0.51792572  0.13383483     0.01100
C172        C  0.68955959  0.51217733  0.10653525     0.07200
C173        C  0.71307405  0.50842884  0.09595076    -0.05900
H174        H  0.68284581  0.52154431  0.14901214     0.07800
H175        H  0.71604820  0.50391678  0.07508944     0.09000
Cu176      Cu  0.74406856  0.52219127  0.17589688     0.44200
Cu177      Cu  0.77305113  0.51045207  0.11318477     0.42000
Cu178      Cu  0.81532329  0.51875336  0.17484374     0.43900
N179        N  0.76856398  0.52341842  0.21027448    -0.34600
N180        N  0.79437307  0.52220072  0.20991942    -0.28800
C181        C  0.80381708  0.52284594  0.23554935    -0.04900
C182        C  0.78289018  0.52439947  0.25282640     0.07300
C183        C  0.76086431  0.52473863  0.23613598     0.01100
H184        H  0.82416830  0.52180076  0.24115497     0.08700
H185        H  0.74055109  0.52557867  0.24229141     0.07800
N186        N  0.83093957  0.51548103  0.13672304    -0.36000
N187        N  0.81536889  0.51259723  0.11428351    -0.28200
C188        C  0.83156339  0.51171422  0.09296975    -0.03400
C189        C  0.85876404  0.51406380  0.10231356     0.05200
C190        C  0.85749735  0.51635834  0.13025407     0.03300
H191        H  0.82379468  0.50926328  0.07221264     0.08400
H192        H  0.87471224  0.51889792  0.14485850     0.07200
N193        N  0.48470003  0.28777235  0.12101607    -0.27200
N194        N  0.48750967  0.30243138  0.14393313    -0.35000
C195        C  0.48997902  0.32993466  0.13802446     0.01100
C196        C  0.48865667  0.33260715  0.10998945     0.07200
C197        C  0.48528169  0.30524845  0.10009972    -0.05900
H198        H  0.49289716  0.34681528  0.15306576     0.07800
H199        H  0.48415279  0.29856989  0.07915274     0.09000
Cu200      Cu  0.48907262  0.28381493  0.18166957     0.44200
Cu201      Cu  0.48207545  0.24550754  0.11820464     0.42000
Cu202      Cu  0.48930116  0.21054833  0.17914775     0.43900
N203        N  0.49138197  0.25986766  0.21577785    -0.34600
N204        N  0.49191347  0.23371446  0.21472534    -0.28800
C205        C  0.49392825  0.22478957  0.24007475    -0.04900
C206        C  0.49454055  0.24618726  0.25802986     0.07300
C207        C  0.49286314  0.26807743  0.24192351     0.01100
H208        H  0.49467042  0.20409541  0.24503831     0.08700
H209        H  0.49285528  0.28858106  0.24869345     0.07800
N210        N  0.48580570  0.19191454  0.14094334    -0.36000
N211        N  0.48286541  0.20478990  0.11859562    -0.28200
C212        C  0.48201352  0.18801547  0.09712860    -0.03400
C213        C  0.48461793  0.16322870  0.10632354     0.05200
C214        C  0.48692755  0.16649219  0.13429899     0.03300
H215        H  0.48057259  0.19409737  0.07635732     0.08400
H216        H  0.48951067  0.15173957  0.14884775     0.07200
N217        N  0.72858470  0.20900711  0.12893309    -0.27200
N218        N  0.72193592  0.19321064  0.15188409    -0.35000
C219        C  0.69615650  0.16575947  0.14851277     0.01100
C220        C  0.68589820  0.16425052  0.12219390     0.07200
C221        C  0.70702987  0.19215533  0.11040986    -0.05900
H222        H  0.68565026  0.14827822  0.16414359     0.07800
H223        H  0.70734507  0.19932062  0.08965703     0.09000
Cu224      Cu  0.74791300  0.20993484  0.18685938     0.44200
Cu225      Cu  0.76799712  0.25166726  0.12325679     0.42000
Cu226      Cu  0.81886164  0.28329610  0.18125685     0.43900
N227        N  0.77515749  0.23341796  0.21978434    -0.34600
N228        N  0.80091730  0.26038171  0.21792621    -0.28800
C229        C  0.81199184  0.27001855  0.24303601    -0.04900
C230        C  0.79223155  0.24802743  0.26150413     0.07300
C231        C  0.76918789  0.22516678  0.24602799     0.01100
H232        H  0.83258176  0.29164544  0.24750735     0.08700
H233        H  0.74914555  0.20433653  0.25329903     0.07800
N234        N  0.83023936  0.30209200  0.14233463    -0.36000
N235        N  0.81126801  0.29106066  0.12147163    -0.28200
C236        C  0.82506772  0.30870215  0.09952523    -0.03400
C237        C  0.85429511  0.33193436  0.10676661     0.05200
C238        C  0.85673358  0.32691490  0.13409552     0.03300
H239        H  0.81466066  0.30457504  0.07964988     0.08400
H240        H  0.87614675  0.34064394  0.14723321     0.07200
C241        C  0.99624583  0.50151507  0.03308385     0.02400
C242        C  0.99708674  0.47370356  0.03234095     0.02300
C243        C  0.01979264  0.47228059  0.01681492    -0.18200
C244        C  0.04146498  0.49794846  0.00184314     0.02400
C245        C  0.04023272  0.52558909  0.00198683     0.02300
C246        C  0.01767567  0.52707408  0.01775885    -0.18200
H247        H  0.01684785  0.54829522  0.01819127     0.04400
H248        H  0.02073370  0.45111454  0.01651739     0.04400
N249        N  0.55601135  0.74312474  0.93044552    -0.27200
N250        N  0.55846354  0.73030739  0.90797178    -0.35000
C251        C  0.55852315  0.70417160  0.91446114     0.01100
C252        C  0.55603236  0.70035490  0.94244705     0.07200
C253        C  0.55463522  0.72569810  0.95179570    -0.05900
H254        H  0.55982429  0.68890156  0.89978153     0.07800
H255        H  0.55157351  0.73059618  0.97251780     0.09000
Cu256      Cu  0.55990045  0.74868567  0.86963983     0.44200
Cu257      Cu  0.55194005  0.78228151  0.93091960     0.42000
Cu258      Cu  0.55397770  0.81888155  0.86699117     0.43900
N259        N  0.55976172  0.77113135  0.83396920    -0.34600
N260        N  0.55776700  0.79650736  0.83295039    -0.28800
C261        C  0.55748109  0.80425525  0.80681165    -0.04900
C262        C  0.55928416  0.78272492  0.79062595     0.07300
C263        C  0.56073312  0.76211288  0.80852862     0.01100
H264        H  0.55540228  0.82375336  0.80011263     0.08700
H265        H  0.56189997  0.74173483  0.80347352     0.07800
N266        N  0.54814426  0.83468506  0.90428219    -0.36000
N267        N  0.54651593  0.82052699  0.92743009    -0.28200
C268        C  0.54088205  0.83488651  0.94767012    -0.03400
C269        C  0.53922573  0.85956252  0.93690185     0.05200
C270        C  0.54407925  0.85885718  0.90931453     0.03300
H271        H  0.53838747  0.82795653  0.96874214     0.08400
H272        H  0.54382735  0.87422732  0.89397848     0.07200
N273        N  0.31916752  0.52020637  0.92057235    -0.27200
N274        N  0.32810741  0.50989620  0.89990283    -0.35000
C275        C  0.35351344  0.50885315  0.90699580     0.01100
C276        C  0.36098793  0.51920004  0.93339890     0.07200
C277        C  0.33869382  0.52622683  0.94130058    -0.05900
H278        H  0.36569238  0.50132306  0.89381202     0.07800
H279        H  0.33625931  0.53433037  0.96092687     0.09000
Cu280      Cu  0.30521950  0.49802215  0.86317447     0.44200
Cu281      Cu  0.27964113  0.52342744  0.92053694     0.42000
Cu282      Cu  0.23151020  0.49655511  0.86140360     0.43900
N283        N  0.27895829  0.48996588  0.82856857    -0.34600
N284        N  0.25221175  0.48932428  0.82796346    -0.28800
C285        C  0.24199368  0.48499913  0.80229699    -0.04900
C286        C  0.26334569  0.48290571  0.78599921     0.07300
C287        C  0.28647125  0.48612158  0.80329703     0.01100
H288        H  0.22097498  0.48430160  0.79591707     0.08700
H289        H  0.30757989  0.48643550  0.79788207     0.07800
N290        N  0.21804971  0.50796470  0.89725265    -0.36000
N291        N  0.23631145  0.51874213  0.91854819    -0.28200
C292        C  0.22134389  0.52384016  0.93861242    -0.03400
C293        C  0.19205433  0.51574969  0.92966116     0.05200
C294        C  0.19077116  0.50573916  0.90328377     0.03300
H295        H  0.23081069  0.53178695  0.95857413     0.08400
H296        H  0.17146954  0.49734632  0.88948958     0.07200
N297        N  0.30092881  0.80981309  0.93025451    -0.27200
N298        N  0.31444228  0.82429866  0.90753249    -0.35000
C299        C  0.34074533  0.85036515  0.91349501     0.01100
C300        C  0.34404407  0.85247977  0.94146631     0.07200
C301        C  0.31821803  0.82622407  0.95133736    -0.05900
H302        H  0.35611377  0.86647944  0.89844800     0.07800
H303        H  0.31236926  0.81920263  0.97222612     0.09000
Cu304      Cu  0.29626710  0.80765498  0.86964063     0.44200
Cu305      Cu  0.25982180  0.76819354  0.93147461     0.42000
Cu306      Cu  0.22445529  0.73340510  0.86756713     0.43900
N307        N  0.27323175  0.78657023  0.83434370    -0.34600
N308        N  0.24729838  0.75967231  0.83340914    -0.28800
C309        C  0.23867716  0.75294473  0.80735524    -0.04900
C310        C  0.26018331  0.77676466  0.79124471     0.07300
C311        C  0.28173983  0.79764352  0.80902263     0.01100
H312        H  0.21825521  0.73227665  0.80068020     0.08700
H313        H  0.30218364  0.81930373  0.80398663     0.07800
N314        N  0.20629991  0.71316545  0.90514035    -0.36000
N315        N  0.21927241  0.72626941  0.92834395    -0.28200
C316        C  0.20211176  0.70809000  0.94890923    -0.03400
C317        C  0.17692470  0.68205520  0.93834449     0.05200
C318        C  0.18047125  0.68612999  0.91041963     0.03300
H319        H  0.20789203  0.71350710  0.97006433     0.08400
H320        H  0.16522921  0.67081770  0.89497478     0.07200
C321        C  0.51425857  0.03726327  0.03592667     0.02400
C322        C  0.54427691  0.04133404  0.03416862     0.02300
C323        C  0.54929418  0.02068286  0.01895049    -0.18200
C324        C  0.52504818  0.99637475  0.00487207     0.02400
C325        C  0.49524437  0.99298871  0.00580646     0.02300
C326        C  0.49010535  0.01327092  0.02153346    -0.18200
H327        H  0.46717419  0.01041400  0.02250474     0.04400
H328        H  0.57227619  0.02364064  0.01797169     0.04400
C329        C  0.54717795  0.51905025  0.04191949     0.02400
C330        C  0.51908063  0.49064574  0.04075606     0.02300
C331        C  0.49540393  0.48817225  0.02389614    -0.18200
C332        C  0.49886856  0.51356490  0.00881366     0.02400
C333        C  0.52678973  0.54218163  0.01035978     0.02300
C334        C  0.55053652  0.54457821  0.02711674    -0.18200
H335        H  0.57228363  0.56614799  0.02781356     0.04400
H336        H  0.47371321  0.46655004  0.02312282     0.04400
C337        C  0.36963545  0.87714954  0.95736462    -0.05100
C338        C  0.36764769  0.87768926  0.98578443    -0.05100
C339        C  0.39170026  0.90065039  0.00087300    -0.23200
C340        C  0.41827769  0.92355031  0.98789535     0.19000
C341        C  0.42063292  0.92334992  0.95936440     0.16200
C342        C  0.39633443  0.90026036  0.94432260    -0.18300
C343        C  0.44733669  0.94618720  0.94636674    -0.20100
C344        C  0.47154190  0.96887948  0.96151567    -0.12700
C345        C  0.46938992  0.96910646  0.98985176     0.04000
C346        C  0.44260553  0.94655408  0.00295279    -0.24800
H347        H  0.34747580  0.86048594  0.99653059     0.09100
H348        H  0.38951062  0.90045108  0.02273983     0.12700
H349        H  0.39852166  0.90027029  0.92250401     0.12600
H350        H  0.44954079  0.94644837  0.92449772     0.12400
H351        H  0.49198971  0.98633965  0.95116183     0.12900
H352        H  0.44098569  0.94672513  0.02486373     0.14900
C353        C  0.38675205  0.52170758  0.94991466    -0.05100
C354        C  0.39838868  0.54272234  0.97144354    -0.05100
C355        C  0.42259000  0.54517720  0.98727551    -0.23200
C356        C  0.43536862  0.52643917  0.98205344     0.19000
C357        C  0.42370529  0.50500787  0.96058264     0.16200
C358        C  0.39962754  0.50295902  0.94452787    -0.18300
C359        C  0.43627908  0.48596066  0.95566201    -0.20100
C360        C  0.46039473  0.48835887  0.97168443    -0.12700
C361        C  0.47244408  0.51004271  0.99263916     0.04000
C362        C  0.45963509  0.52879511  0.99791120    -0.24800
H363        H  0.38904515  0.55758260  0.97585436     0.09100
H364        H  0.43131609  0.56176510  0.00366576     0.12700
H365        H  0.39057751  0.48638207  0.92814765     0.12600
H366        H  0.42753666  0.46928804  0.93935283     0.12400
H367        H  0.47009029  0.47374674  0.96745072     0.12900
H368        H  0.46874701  0.54532856  0.01434597     0.14900
C369        C  0.53129739  0.97465153  0.98959105    -0.05100
C370        C  0.55285588  0.98550126  0.96831524    -0.05100
C371        C  0.55823420  0.96504579  0.95329752    -0.23200
C372        C  0.54246398  0.93344471  0.95962224     0.19000
C373        C  0.52122587  0.92244434  0.98146407     0.16200
C374        C  0.51560325  0.94307571  0.99616627    -0.18300
C375        C  0.50614063  0.89102920  0.98833312    -0.20100
C376        C  0.51218887  0.87072460  0.97384372    -0.12700
C377        C  0.53285390  0.88130016  0.95184947     0.04000
C378        C  0.54776760  0.91270472  0.94467501    -0.24800
H379        H  0.56515417  0.00980194  0.96306604     0.09100
H380        H  0.57475879  0.97394312  0.93677858     0.12700
H381        H  0.49921403  0.93471063  0.01280933     0.12600
H382        H  0.48986042  0.88220837  0.00502650     0.12400
H383        H  0.50036715  0.84658080  0.97962093     0.12900
H384        H  0.56402980  0.92107814  0.92793446     0.14900
C385        C  0.55312136  0.67396293  0.95880109    -0.05100
C386        C  0.55769694  0.67669040  0.98701503    -0.05100
C387        C  0.55393253  0.65165373  0.00266669    -0.23200
C388        C  0.54543528  0.62330077  0.99046003     0.19000
C389        C  0.54095480  0.62028830  0.96211925     0.16200
C390        C  0.54492659  0.64559268  0.94650099    -0.18300
C391        C  0.53240731  0.59193517  0.94986589    -0.20100
C392        C  0.52822288  0.56678728  0.96552309    -0.12700
C393        C  0.53218841  0.56936809  0.99375535     0.04000
C394        C  0.54113818  0.59786314  0.00609127    -0.24800
H395        H  0.56430750  0.69823729  0.99709295     0.09100
H396        H  0.55755044  0.65445054  0.02434709     0.12700
H397        H  0.54102819  0.64290450  0.92486370     0.12600
H398        H  0.52894249  0.58919382  0.92817283     0.12400
H399        H  0.52181697  0.54518131  0.95557310     0.12900
H400        H  0.54424162  0.60001696  0.02786386     0.14900
C401        C  0.15180548  0.65587340  0.95375514    -0.05100
C402        C  0.14788934  0.65869935  0.98163927    -0.05100
C403        C  0.12465066  0.63416504  0.99641341    -0.23200
C404        C  0.10475743  0.60620980  0.98367099     0.19000
C405        C  0.10821614  0.60307601  0.95562781     0.16200
C406        C  0.13165351  0.62786162  0.94088649    -0.18300
C407        C  0.08825511  0.57511637  0.94284915    -0.20100
C408        C  0.06543208  0.55039514  0.95775640    -0.12700
C409        C  0.06237046  0.55298483  0.98578050     0.04000
C410        C  0.08178253  0.58119991  0.99854545    -0.24800
H411        H  0.16266063  0.67997572  0.99217019     0.09100
H412        H  0.12230416  0.63705323  0.01788557     0.12700
H413        H  0.13436491  0.62509248  0.91946338     0.12600
H414        H  0.09044521  0.57227302  0.92134941     0.12400
H415        H  0.05043688  0.52894031  0.94750034     0.12900
H416        H  0.07958371  0.58331649  0.02018971     0.14900
C417        C  0.06585507  0.49587280  0.98674424    -0.05100
C418        C  0.05817999  0.47602102  0.96454591    -0.05100
C419        C  0.08138499  0.47626781  0.94860087    -0.23200
C420        C  0.11256009  0.49616561  0.95484732     0.19000
C421        C  0.12036454  0.51570849  0.97759555     0.16200
C422        C  0.09696304  0.51539255  0.99340398    -0.18300
C423        C  0.15143650  0.53537327  0.98403949    -0.20100
C424        C  0.17465021  0.53551187  0.96827221    -0.12700
C425        C  0.16723631  0.51619445  0.94561140     0.04000
C426        C  0.13605136  0.49674173  0.93887066    -0.24800
H427        H  0.03423500  0.46103320  0.95912507     0.09100
H428        H  0.07496139  0.46108628  0.93126492     0.12700
H429        H  0.10283922  0.53069971  0.01063011     0.12600
H430        H  0.15780482  0.55058866  0.00136127     0.12400
H431        H  0.19844739  0.55093255  0.97376093     0.12900
H432        H  0.12998826  0.48151692  0.92159335     0.14900
C433        C  0.57084493  0.06761996  0.04742080    -0.05100
C434        C  0.58048094  0.09789948  0.03891852    -0.05100
C435        C  0.60489292  0.12292055  0.05192224    -0.23200
C436        C  0.61978946  0.11798492  0.07382222     0.19000
C437        C  0.60981538  0.08752384  0.08277728     0.16200
C438        C  0.58563889  0.06249414  0.06928259    -0.18300
C439        C  0.62413460  0.08264663  0.10513121    -0.20100
C440        C  0.64845202  0.10766599  0.11824576    -0.12700
C441        C  0.65914118  0.13797229  0.10904615     0.04000
C442        C  0.64452269  0.14296647  0.08687089    -0.24800
H443        H  0.56901882  0.10209233  0.02220127     0.09100
H444        H  0.61204716  0.14609529  0.04492101     0.12700
H445        H  0.57783888  0.03909061  0.07606384     0.12600
H446        H  0.61664540  0.05949154  0.11238292     0.12400
H447        H  0.65939014  0.10319889  0.13521636     0.12900
H448        H  0.65224238  0.16626384  0.07986888     0.14900
C449        C  0.87751516  0.35705201  0.08924850    -0.05100
C450        C  0.86815816  0.36669348  0.06611107    -0.05100
C451        C  0.88974292  0.39108344  0.05004954    -0.23200
C452        C  0.92118745  0.40606410  0.05660753     0.19000
C453        C  0.93101271  0.39605389  0.07940219     0.16200
C454        C  0.90911741  0.37181100  0.09567683    -0.18300
C455        C  0.96257216  0.41062561  0.08562853    -0.20100
C456        C  0.98411093  0.43524373  0.06973244    -0.12700
C457        C  0.97441664  0.44594283  0.04762816     0.04000
C458        C  0.94293755  0.43107667  0.04095606    -0.24800
H459        H  0.84399705  0.35584476  0.06072176     0.09100
H460        H  0.88180871  0.39835542  0.03259735     0.12700
H461        H  0.91672653  0.36433989  0.11321479     0.12600
H462        H  0.97055413  0.40318314  0.10292188     0.12400
H463        H  0.00831984  0.44657755  0.07512255     0.12900
H464        H  0.93546283  0.43926615  0.02379736     0.13700
C465        C  0.48640579  0.13956354  0.08972074    -0.05100
C466        C  0.47756757  0.13549093  0.06230566    -0.05100
C467        C  0.48019843  0.11386162  0.04644677    -0.23200
C468        C  0.49175305  0.09592214  0.05767965     0.19000
C469        C  0.50033422  0.09957191  0.08529090     0.16200
C470        C  0.49759277  0.12126688  0.10105709    -0.18300
C471        C  0.51182412  0.08166030  0.09665911    -0.20100
C472        C  0.51531922  0.06069761  0.08073934    -0.12700
C473        C  0.50777947  0.05756199  0.05310264     0.04000
C474        C  0.49540439  0.07479485  0.04175457    -0.24800
H475        H  0.46855171  0.14895818  0.05303432     0.09100
H476        H  0.47338462  0.11132006  0.02533872     0.12700
H477        H  0.50479515  0.12421465  0.12205831     0.12600
H478        H  0.51836964  0.08404776  0.11784956     0.12400
H479        H  0.52438287  0.04718760  0.08988379     0.12900
H480        H  0.48952009  0.07238069  0.02040046     0.14900
C481        C  0.51361200  0.46367179  0.05766362    -0.05100
C482        C  0.51783224  0.46664920  0.08586257    -0.05100
C483        C  0.51335941  0.44157760  0.10182080    -0.23200
C484        C  0.50440241  0.41296888  0.08988588     0.19000
C485        C  0.49964431  0.40964313  0.06157852     0.16200
C486        C  0.50416582  0.43494449  0.04567258    -0.18300
C487        C  0.49063222  0.38110626  0.04963030    -0.20100
C488        C  0.48667952  0.35617413  0.06544893    -0.12700
C489        C  0.49172227  0.35913573  0.09363713     0.04000
C490        C  0.50034814  0.38773400  0.10571893    -0.24800
H491        H  0.52460427  0.48847745  0.09553997     0.09100
H492        H  0.51698630  0.44459661  0.12350076     0.12700
H493        H  0.50084222  0.43249016  0.02391991     0.12600
H494        H  0.48675519  0.37807296  0.02797970     0.12400
H495        H  0.47965749  0.33455334  0.05535578     0.12900
H496        H  0.50439046  0.39062438  0.12735196     0.14900
C497        C  0.88351916  0.51396091  0.08584336    -0.05100
C498        C  0.88499534  0.51927731  0.05772147    -0.05100
C499        C  0.90777169  0.51857347  0.04191939    -0.23200
C500        C  0.92952819  0.51247742  0.05390298     0.19000
C501        C  0.92846332  0.50727377  0.08217131     0.16200
C502        C  0.90557263  0.50815772  0.09795704    -0.18300
C503        C  0.95018548  0.50103535  0.09414061    -0.20100
C504        C  0.97254234  0.49969316  0.07820103    -0.12700
C505        C  0.97346540  0.50443483  0.05007587     0.04000
C506        C  0.95212996  0.51119081  0.03805205    -0.24800
H507        H  0.86864204  0.52418740  0.04779866     0.09100
H508        H  0.90828438  0.52268061  0.02031132     0.12700
H509        H  0.90468557  0.50378547  0.11952410     0.12600
H510        H  0.94978633  0.49704533  0.11575297     0.12400
H511        H  0.98909209  0.49477542  0.08778852     0.12900
H512        H  0.95278276  0.51477702  0.01633289     0.14900
C513        C  0.66283812  0.50998560  0.09182434    -0.05100
C514        C  0.65055879  0.49023054  0.06951097    -0.05100
C515        C  0.62520658  0.48784101  0.05554514    -0.23200
C516        C  0.61208444  0.50563255  0.06334446     0.19000
C517        C  0.62453419  0.52596004  0.08552639     0.16200
C518        C  0.64959484  0.52770332  0.09984615    -0.18300
C519        C  0.61183110  0.54433862  0.09283463    -0.20100
C520        C  0.58693444  0.54246941  0.07837200    -0.12700
C521        C  0.57410572  0.52183975  0.05675406     0.04000
C522        C  0.58682707  0.50355584  0.04924477    -0.24800
H523        H  0.66028323  0.47622967  0.06310464     0.09100
H524        H  0.61596121  0.47219224  0.03857137     0.12700
H525        H  0.65917410  0.54327555  0.11684694     0.12600
H526        H  0.62117810  0.56016947  0.10967221     0.12400
H527        H  0.57730044  0.55671175  0.08429986     0.12900
H528        H  0.57707436  0.48785086  0.03233451     0.14900
C529        C  0.38540203  0.89458888  0.60609207    -0.05100
C530        C  0.39936879  0.92440421  0.61709322    -0.05100
C531        C  0.42537236  0.94882627  0.60479458    -0.23200
C532        C  0.43819912  0.94379008  0.58148132     0.19000
C533        C  0.42474636  0.91372962  0.57058712     0.16200
C534        C  0.39828058  0.88943655  0.58277218    -0.18300
C535        C  0.43810264  0.90843605  0.54776371    -0.20100
C536        C  0.46449837  0.93267053  0.53584715    -0.12700
C537        C  0.47772400  0.96262181  0.54629628     0.04000
C538        C  0.46438792  0.96818236  0.56901399    -0.24800
H539        H  0.38984994  0.92899885  0.63498734     0.09100
H540        H  0.43546652  0.97163311  0.61354409     0.12700
H541        H  0.38802754  0.86645742  0.57435188     0.12600
H542        H  0.42828303  0.88554487  0.53926546     0.12400
H543        H  0.47475056  0.92809071  0.51842932     0.12900
H544        H  0.47487287  0.99124914  0.57728389     0.14900
C545        C  0.38143108  0.50435044  0.59207804    -0.05100
C546        C  0.39260933  0.52432926  0.56957942    -0.05100
C547        C  0.41862665  0.52853775  0.55536066    -0.23200
C548        C  0.43370178  0.51250245  0.56316867     0.19000
C549        C  0.42243211  0.49204810  0.58557767     0.16200
C550        C  0.39654915  0.48828611  0.59999493    -0.18300
C551        C  0.43719717  0.47562746  0.59314948    -0.20100
C552        C  0.46302587  0.47961600  0.57879233    -0.12700
C553        C  0.47469004  0.50023391  0.55678829     0.04000
C554        C  0.45978597  0.51650188  0.54893118    -0.24800
H555        H  0.38153239  0.53715452  0.56321652     0.09100
H556        H  0.42694160  0.54431651  0.53826689     0.12700
H557        H  0.38795385  0.47255524  0.61710913     0.12600
H558        H  0.42881954  0.45976762  0.61017734     0.12400
H559        H  0.47424379  0.46688863  0.58508837     0.12900
H560        H  0.46845447  0.53211903  0.53172481     0.14900
C561        C  0.54460300  0.87289865  0.58896997    -0.05100
C562        C  0.55230934  0.87570725  0.56128413    -0.05100
C563        C  0.55278612  0.89918024  0.54539944    -0.23200
C564        C  0.54537865  0.92024593  0.55681552     0.19000
C565        C  0.53747384  0.91760681  0.58459567     0.16200
C566        C  0.53717810  0.89405679  0.60044822    -0.18300
C567        C  0.52991069  0.93853750  0.59606108    -0.20100
C568        C  0.52982254  0.96161438  0.58010855    -0.12700
C569        C  0.53704130  0.96409211  0.55236344     0.04000
C570        C  0.54532583  0.94362472  0.54089762    -0.24800
H571        H  0.55840606  0.86000602  0.55189058     0.09100
H572        H  0.55892908  0.90082726  0.52415269     0.12700
H573        H  0.53084291  0.89208693  0.62165236     0.12600
H574        H  0.52387604  0.93694906  0.61732054     0.12400
H575        H  0.52376165  0.97743764  0.58937259     0.12900
H576        H  0.55085958  0.94540247  0.51948247     0.14900
C577        C  0.53526375  0.64665343  0.61061080    -0.05100
C578        C  0.53047764  0.62216749  0.62791913    -0.05100
C579        C  0.52819270  0.59518574  0.61756687    -0.23200
C580        C  0.53069935  0.59204232  0.58966670     0.19000
C581        C  0.53551368  0.61639442  0.57199618     0.16200
C582        C  0.53764856  0.64341758  0.58254198    -0.18300
C583        C  0.53833234  0.61337423  0.54406754    -0.20100
C584        C  0.53648828  0.58656608  0.53376474    -0.12700
C585        C  0.53144420  0.56219731  0.55114370     0.04000
C586        C  0.52860902  0.56505218  0.57912920    -0.24800
H587        H  0.52828681  0.62360975  0.64957111     0.09100
H588        H  0.52449675  0.57676250  0.63143248     0.12700
H589        H  0.54153450  0.66200030  0.56881406     0.12600
H590        H  0.54206732  0.63180232  0.53018439     0.12400
H591        H  0.53872508  0.58465827  0.51214011     0.12900
H592        H  0.52499949  0.54634431  0.59262009     0.14900
C593        C  0.15232299  0.48913393  0.59868348    -0.05100
C594        C  0.12239972  0.46892836  0.60846132    -0.05100
C595        C  0.09684034  0.46934365  0.59758749    -0.23200
C596        C  0.10073193  0.49041323  0.57704292     0.19000
C597        C  0.13068149  0.51066450  0.56678607     0.16200
C598        C  0.15624555  0.50955740  0.57737179    -0.18300
C599        C  0.13459005  0.53222831  0.54665592    -0.20100
C600        C  0.10923973  0.53419371  0.53728262    -0.12700
C601        C  0.07949624  0.51442469  0.54760915     0.04000
C602        C  0.07529623  0.49213248  0.56711897    -0.24800
H603        H  0.11872645  0.45273503  0.62462964     0.09100
H604        H  0.07408188  0.45360309  0.60565629     0.12700
H605        H  0.17923443  0.52539201  0.56981255     0.12600
H606        H  0.15731248  0.54794759  0.53852418     0.12400
H607        H  0.11282637  0.55134208  0.52205569     0.12900
H608        H  0.05238899  0.47689803  0.57519970     0.14900
C609        C  0.07684923  0.57127866  0.55799108    -0.05100
C610        C  0.08036107  0.56661082  0.58553856    -0.05100
C611        C  0.10304495  0.59042513  0.60105838    -0.23200
C612        C  0.12275808  0.61929940  0.58923384     0.19000
C613        C  0.11960587  0.62409358  0.56142623     0.16200
C614        C  0.09648391  0.60011875  0.54602595    -0.18300
C615        C  0.13966416  0.65278186  0.54953162    -0.20100
C616        C  0.16244984  0.67659232  0.56501129    -0.12700
C617        C  0.16555630  0.67231163  0.59277512     0.04000
C618        C  0.14554533  0.64343642  0.60472818    -0.24800
H619        H  0.06536698  0.54448614  0.59503588     0.09100
H620        H  0.10516544  0.58625022  0.62231503     0.12700
H621        H  0.09396033  0.60367794  0.52468161     0.12600
H622        H  0.13768062  0.65686268  0.52821737     0.12400
H623        H  0.17732432  0.69854164  0.55524450     0.12900
H624        H  0.14783419  0.63955862  0.62600237     0.14900
C625        C  0.97597708  0.46745488  0.50452931    -0.05100
C626        C  0.94650305  0.45537995  0.51614806    -0.05100
C627        C  0.92103114  0.42981386  0.50470955    -0.23200
C628        C  0.92464168  0.41605917  0.48135098     0.19000
C629        C  0.95423385  0.42841375  0.46939723     0.16200
C630        C  0.97973601  0.45378197  0.48122466    -0.18300
C631        C  0.95784787  0.41525674  0.44573713    -0.20100
C632        C  0.93249927  0.38988125  0.43412593    -0.12700
C633        C  0.90303875  0.37692141  0.44603036     0.04000
C634        C  0.89925679  0.39021086  0.46972043    -0.24800
H635        H  0.94327253  0.46583427  0.53407464     0.09100
H636        H  0.89853926  0.42086388  0.51407531     0.12700
H637        H  0.00241351  0.46335542  0.47204642     0.12600
H638        H  0.98030473  0.42452897  0.43624091     0.12400
H639        H  0.93616763  0.38004295  0.41599475     0.12900
H640        H  0.87660430  0.38071201  0.47889566     0.14900
C641        C  0.58678962  0.05602085  0.49110407    -0.05100
C642        C  0.59863009  0.04769646  0.46900626    -0.05100
C643        C  0.62427293  0.07012147  0.45466987    -0.23200
C644        C  0.63875581  0.10116767  0.46253349     0.19000
C645        C  0.62723168  0.10963468  0.48506693     0.16200
C646        C  0.60116954  0.08703751  0.49907776    -0.18300
C647        C  0.64204544  0.14054053  0.49324183    -0.20100
C648        C  0.66813591  0.16286553  0.47933126    -0.12700
C649        C  0.67964902  0.15482538  0.45673154     0.04000
C650        C  0.66466434  0.12383739  0.44836812    -0.24800
H651        H  0.58761833  0.02386996  0.46257021     0.09100
H652        H  0.63279115  0.06319509  0.43748825     0.12700
H653        H  0.59204069  0.09344987  0.51619833     0.12600
H654        H  0.63351959  0.14743741  0.51045681     0.12400
H655        H  0.67902784  0.18656636  0.48605113     0.12900
H656        H  0.67344316  0.11722970  0.43115158     0.14900
C657        C  0.89432948  0.52246910  0.44349017    -0.05100
C658        C  0.91102680  0.51173192  0.42857609    -0.05100
C659        C  0.93609329  0.51084885  0.43994564    -0.23200
C660        C  0.94508453  0.52056937  0.46658534     0.19000
C661        C  0.92838111  0.53095861  0.48213193     0.16200
C662        C  0.90303066  0.53179491  0.47051010    -0.18300
C663        C  0.93746830  0.54036021  0.50896465    -0.20100
C664        C  0.96236618  0.53884164  0.52036410    -0.12700
C665        C  0.97868047  0.52800247  0.50512234     0.04000
C666        C  0.97032560  0.51969601  0.47797236    -0.24800
H667        H  0.90471222  0.50378872  0.40799156     0.09100
H668        H  0.94843608  0.50246962  0.42786161     0.12700
H669        H  0.89048187  0.54013707  0.48233587     0.12600
H670        H  0.92505706  0.54848628  0.52125864     0.12400
H671        H  0.96841862  0.54539547  0.54130301     0.12900
H672        H  0.98320100  0.51195925  0.46584225     0.14900
C673        C  0.66741141  0.51791461  0.44152316    -0.05100
C674        C  0.63950919  0.50357649  0.42696830    -0.05100
C675        C  0.61215143  0.49922150  0.43856616    -0.23200
C676        C  0.61204157  0.50920702  0.46496217     0.19000
C677        C  0.63986017  0.52363159  0.47988837     0.16200
C678        C  0.66733226  0.52780814  0.46811881    -0.18300
C679        C  0.63968366  0.53369779  0.50629589    -0.20100
C680        C  0.61226732  0.52937835  0.51783259    -0.12700
C681        C  0.58448318  0.51489084  0.50323177     0.04000
C682        C  0.58461325  0.50507703  0.47664844    -0.24800
H683        H  0.63860296  0.49526041  0.40662896     0.09100
H684        H  0.59101853  0.48796532  0.42685580     0.12700
H685        H  0.68866491  0.53907233  0.47955491     0.12600
H686        H  0.66076897  0.54487883  0.51807716     0.12400
H687        H  0.61265125  0.53714276  0.53833119     0.12900
H688        H  0.56339434  0.49441569  0.46502685     0.14900
C689        C  0.51771263  0.14697595  0.45373943    -0.05100
C690        C  0.51289763  0.14508845  0.48195362    -0.05100
C691        C  0.51386291  0.12210117  0.49738357    -0.23200
C692        C  0.51978767  0.10049647  0.48498330     0.19000
C693        C  0.52459792  0.10197460  0.45665921     0.16200
C694        C  0.52340234  0.12507093  0.44121819    -0.18300
C695        C  0.53076555  0.08044725  0.44429209    -0.20100
C696        C  0.53247311  0.05794550  0.45988909    -0.12700
C697        C  0.52799015  0.05651457  0.48806336     0.04000
C698        C  0.52127746  0.07764083  0.50047915    -0.24800
H699        H  0.50812004  0.16125868  0.49227175     0.09100
H700        H  0.51008210  0.12130651  0.51903633     0.12700
H701        H  0.52736488  0.12617916  0.41960172     0.12600
H702        H  0.53445447  0.08113194  0.42264423     0.12400
H703        H  0.53739296  0.04161761  0.44997445     0.12900
H704        H  0.51786934  0.07662217  0.52221594     0.14900
C705        C  0.50555833  0.36131177  0.44825886    -0.05100
C706        C  0.48629727  0.37218285  0.43860615    -0.05100
C707        C  0.48598166  0.39702582  0.45102181    -0.23200
C708        C  0.50535292  0.41184329  0.47306634     0.19000
C709        C  0.52486467  0.40114819  0.48299343     0.16200
C710        C  0.52455473  0.37569958  0.47074595    -0.18300
C711        C  0.54472853  0.41644686  0.50469755    -0.20100
C712        C  0.54560134  0.44235924  0.51614601    -0.12700
C713        C  0.52646742  0.45321323  0.50625030     0.04000
C714        C  0.50598434  0.43754804  0.48499679    -0.24800
H715        H  0.47121757  0.36129214  0.42150004     0.09100
H716        H  0.47088312  0.40488473  0.44316679     0.12700
H717        H  0.53970119  0.36769336  0.47820277     0.12600
H718        H  0.55986709  0.40863343  0.51256530     0.12400
H719        H  0.56138484  0.45414190  0.53264069     0.12900
H720        H  0.49127000  0.44597460  0.47729316     0.14900
loop_ 
_geom_bond_atom_site_label_1 
_geom_bond_atom_site_label_2 
_geom_bond_distance 
_geom_bond_site_symmetry_2 
_ccdc_geom_bond_type 
N1            N2   1.321       .  A
N1            C5   1.347       .  A
N1           Cu9   2.079       .  S
N2            C3   1.344       .  A
N2           Cu8   2.071       .  S
C3            C4   1.385       .  A
C3            H6   1.082       .  S
C4            C5   1.387       .  A
C4          C705   1.482       .  S
C5            H7   1.082       .  S
Cu8          N11   2.071       .  S
Cu9          N19   2.080       .  S
Cu10         N12   2.094       .  S
Cu10         N18   2.094       .  S
N11          N12   1.323       .  A
N11          C15   1.345       .  A
N12          C13   1.349       .  A
C13          C14   1.389       .  A
C13          H16   1.081       .  S
C14          C15   1.382       .  A
C14         C206   1.478       .  S
C15          H17   1.082       .  S
N18          N19   1.323       .  A
N18          C22   1.348       .  A
N19          C20   1.345       .  A
C20          C21   1.388       .  A
C20          H23   1.081       .  S
C21          C22   1.390       .  A
C21         C689   1.491       .  S
C22          H24   1.082       .  S
N25          N26   1.323       .  A
N25          C29   1.351       .  A
N25         Cu33   2.102       .  S
N26          C27   1.341       .  A
N26         Cu32   2.062       .  S
C27          C28   1.382       .  A
C27          H30   1.081       .  S
C28          C29   1.392       .  A
C28         C673   1.487       .  S
C29          H31   1.082       .  S
Cu32         N35   2.061       .  S
Cu33         N43   2.103       .  S
Cu34         N36   2.074       .  S
Cu34         N42   2.076       .  S
N35          N36   1.320       .  A
N35          C39   1.344       .  A
N36          C37   1.346       .  A
C37          C38   1.385       .  A
C37          H40   1.082       .  S
C38          C39   1.383       .  A
C38         C182   1.472       .  S
C39          H41   1.081       .  S
N42          N43   1.323       .  A
N42          C46   1.342       .  A
N43          C44   1.352       .  A
C44          C45   1.393       .  A
C44          H47   1.081       .  S
C45          C46   1.385       .  A
C45         C657   1.492       .  S
C46          H48   1.081       .  S
N49          N50   1.323       .  A
N49          C53   1.347       .  A
N49         Cu57   2.089       .  S
N50          C51   1.344       .  A
N50         Cu56   2.076       .  S
C51          C52   1.385       .  A
C51          H54   1.083       .  S
C52          C53   1.389       .  A
C52         C649   1.484       .  S
C53          H55   1.083       .  S
Cu56         N59   2.075       .  S
Cu57         N67   2.089       .  S
Cu58         N60   2.072       .  S
Cu58         N66   2.072       .  S
N59          N60   1.321       .  A
N59          C63   1.345       .  A
N60          C61   1.346       .  A
C61          C62   1.384       .  A
C61          H64   1.082       .  S
C62          C63   1.385       .  A
C62         C230   1.475       .  S
C63          H65   1.081       .  S
N66          N67   1.323       .  A
N66          C70   1.342       .  A
N67          C68   1.349       .  A
C68          C69   1.389       .  A
C68          H71   1.081       .  S
C69          C70   1.384       .  A
C69         C633   1.483       .  S
C70          H72   1.081       .  S
C73          C74   1.418       .  A
C73          C78   1.405       .  A
C73         C625   1.482   1_455  S
C74          C75   1.407       .  A
C74         C665   1.493   1_455  S
C75          C76   1.408       .  A
C75          H80   1.084       .  S
C76          C77   1.415       .  A
C76         C609   1.484       .  S
C77          C78   1.403       .  A
C77         C601   1.487       .  S
C78          H79   1.084       .  S
N81          N82   1.321       .  A
N81          C85   1.348       .  A
N81         Cu89   2.087       .  S
N82          C83   1.343       .  A
N82         Cu88   2.068       .  S
C83          C84   1.387       .  A
C83          H86   1.081       .  S
C84          C85   1.392       .  A
C84         C577   1.490       .  S
C85          H87   1.081       .  S
Cu88         N91   2.068       .  S
Cu89         N99   2.088       .  S
Cu90         N92   2.085       .  S
Cu90         N98   2.085       .  S
N91          N92   1.321       .  A
N91          C95   1.344       .  A
N92          C93   1.348       .  A
C93          C94   1.387       .  A
C93          H96   1.081       .  S
C94          C95   1.383       .  A
C94         C262   1.476       .  S
C95          H97   1.082       .  S
N98          N99   1.324       .  A
N98         C102   1.346       .  A
N99         C100   1.347       .  A
C100        C101   1.389       .  A
C100        H103   1.081       .  S
C101        C102   1.387       .  A
C101        C561   1.488       .  S
C102        H104   1.081       .  S
N105        N106   1.324       .  A
N105        C109   1.346       .  A
N105       Cu113   2.088       .  S
N106        C107   1.345       .  A
N106       Cu112   2.075       .  S
C107        C108   1.385       .  A
C107        H110   1.082       .  S
C108        C109   1.386       .  A
C108        C545   1.482       .  S
C109        H111   1.082       .  S
Cu112       N115   2.074       .  S
Cu113       N123   2.087       .  S
Cu114       N116   2.066       .  S
Cu114       N122   2.067       .  S
N115        N116   1.321       .  A
N115        C119   1.346       .  A
N116        C117   1.343       .  A
C117        C118   1.381       .  A
C117        H120   1.082       .  S
C118        C119   1.385       .  A
C118        C286   1.470       .  S
C119        H121   1.081       .  S
N122        N123   1.321       .  A
N122        C126   1.343       .  A
N123        C124   1.349       .  A
C124        C125   1.389       .  A
C124        H127   1.081       .  S
C125        C126   1.384       .  A
C125        C593   1.483       .  S
C126        H128   1.082       .  S
N129        N130   1.322       .  A
N129        C133   1.347       .  A
N129       Cu137   2.083       .  S
N130        C131   1.345       .  A
N130       Cu136   2.074       .  S
C131        C132   1.385       .  A
C131        H134   1.083       .  S
C132        C133   1.387       .  A
C132        C529   1.483       .  S
C133        H135   1.082       .  S
Cu136       N139   2.074       .  S
Cu137       N147   2.083       .  S
Cu138       N140   2.074       .  S
Cu138       N146   2.075       .  S
N139        N140   1.322       .  A
N139        C143   1.345       .  A
N140        C141   1.345       .  A
C141        C142   1.383       .  A
C141        H144   1.083       .  S
C142        C143   1.384       .  A
C142        C310   1.472       .  S
C143        H145   1.081       .  S
N146        N147   1.322       .  A
N146        C150   1.346       .  A
N147        C148   1.346       .  A
C148        C149   1.388       .  A
C148        H151   1.082       .  S
C149        C150   1.387       .  A
C149        C617   1.487       .  S
C150        H152   1.080       .  S
C153        C154   1.415       .  A
C153        C158   1.406       .  A
C153        C641   1.482       .  S
C154        C155   1.404       .  A
C154        C697   1.485       .  S
C155        C156   1.403   1_545  A
C155        H160   1.084       .  S
C156        C157   1.415       .  A
C156        C537   1.481       .  S
C157        C158   1.405   1_565  A
C157        C569   1.487       .  S
C158        H159   1.084       .  S
C161        C162   1.417       .  A
C161        C166   1.404       .  A
C161        C713   1.482       .  S
C162        C163   1.405       .  A
C162        C681   1.488       .  S
C163        C164   1.403       .  A
C163        H168   1.085       .  S
C164        C165   1.415       .  A
C164        C585   1.482       .  S
C165        C166   1.405       .  A
C165        C553   1.484       .  S
C166        H167   1.084       .  S
N169        N170   1.321       .  A
N169        C173   1.344       .  A
N169       Cu177   2.067       .  S
N170        C171   1.346       .  A
N170       Cu176   2.076       .  S
C171        C172   1.386       .  A
C171        H174   1.082       .  S
C172        C173   1.384       .  A
C172        C513   1.477       .  S
C173        H175   1.082       .  S
Cu176       N179   2.077       .  S
Cu177       N187   2.067       .  S
Cu178       N180   2.076       .  S
Cu178       N186   2.076       .  S
N179        N180   1.323       .  A
N179        C183   1.345       .  A
N180        C181   1.346       .  A
C181        C182   1.383       .  A
C181        H184   1.082       .  S
C182        C183   1.383       .  A
C183        H185   1.082       .  S
N186        N187   1.321       .  A
N186        C190   1.346       .  A
N187        C188   1.342       .  A
C188        C189   1.386       .  A
C188        H191   1.082       .  S
C189        C190   1.389       .  A
C189        C497   1.484       .  S
C190        H192   1.082       .  S
N193        N194   1.321       .  A
N193        C197   1.341       .  A
N193       Cu201   2.059       .  S
N194        C195   1.350       .  A
N194       Cu200   2.098       .  S
C195        C196   1.394       .  A
C195        H198   1.082       .  S
C196        C197   1.385       .  A
C196        C489   1.491       .  S
C197        H199   1.081       .  S
Cu200       N203   2.098       .  S
Cu201       N211   2.059       .  S
Cu202       N204   2.078       .  S
Cu202       N210   2.077       .  S
N203        N204   1.324       .  A
N203        C207   1.347       .  A
N204        C205   1.347       .  A
C205        C206   1.383       .  A
C205        H208   1.082       .  S
C206        C207   1.387       .  A
C207        H209   1.082       .  S
N210        N211   1.320       .  A
N210        C214   1.344       .  A
N211        C212   1.343       .  A
C212        C213   1.385       .  A
C212        H215   1.081       .  S
C213        C214   1.390       .  A
C213        C465   1.483       .  S
C214        H216   1.081       .  S
N217        N218   1.322       .  A
N217        C221   1.345       .  A
N217       Cu225   2.075       .  S
N218        C219   1.345       .  A
N218       Cu224   2.073       .  S
C219        C220   1.386       .  A
C219        H222   1.082       .  S
C220        C221   1.386       .  A
C220        C441   1.480       .  S
C221        H223   1.081       .  S
Cu224       N227   2.074       .  S
Cu225       N235   2.076       .  S
Cu226       N228   2.084       .  S
Cu226       N234   2.084       .  S
N227        N228   1.323       .  A
N227        C231   1.345       .  A
N228        C229   1.347       .  A
C229        C230   1.386       .  A
C229        H232   1.081       .  S
C230        C231   1.383       .  A
C231        H233   1.082       .  S
N234        N235   1.322       .  A
N234        C238   1.346       .  A
N235        C236   1.345       .  A
C236        C237   1.386       .  A
C236        H239   1.082       .  S
C237        C238   1.388       .  A
C237        C449   1.485       .  S
C238        H240   1.083       .  S
C241        C242   1.415       .  A
C241        C246   1.405   1_655  A
C241        C505   1.481       .  S
C242        C243   1.402   1_655  A
C242        C457   1.483       .  S
C243        C244   1.403       .  A
C243        H248   1.084       .  S
C244        C245   1.416       .  A
C244        C417   1.478   1_554  S
C245        C246   1.404       .  A
C245        C409   1.488   1_554  S
C246        H247   1.084       .  S
N249        N250   1.321       .  A
N249        C253   1.344       .  A
N249       Cu257   2.070       .  S
N250        C251   1.347       .  A
N250       Cu256   2.085       .  S
C251        C252   1.391       .  A
C251        H254   1.082       .  S
C252        C253   1.387       .  A
C252        C385   1.488       .  S
C253        H255   1.082       .  S
Cu256       N259   2.086       .  S
Cu257       N267   2.071       .  S
Cu258       N260   2.085       .  S
Cu258       N266   2.085       .  S
N259        N260   1.324       .  A
N259        C263   1.346       .  A
N260        C261   1.348       .  A
C261        C262   1.384       .  A
C261        H264   1.082       .  S
C262        C263   1.384       .  A
C263        H265   1.081       .  S
N266        N267   1.322       .  A
N266        C270   1.348       .  A
N267        C268   1.344       .  A
C268        C269   1.383       .  A
C268        H271   1.082       .  S
C269        C270   1.387       .  A
C269        C377   1.479       .  S
C270        H272   1.081       .  S
N273        N274   1.321       .  A
N273        C277   1.342       .  A
N273       Cu281   2.063       .  S
N274        C275   1.345       .  A
N274       Cu280   2.070       .  S
C275        C276   1.386       .  A
C275        H278   1.082       .  S
C276        C277   1.384       .  A
C276        C353   1.477       .  S
C277        H279   1.083       .  S
Cu280       N283   2.070       .  S
Cu281       N291   2.063       .  S
Cu282       N284   2.076       .  S
Cu282       N290   2.075       .  S
N283        N284   1.323       .  A
N283        C287   1.345       .  A
N284        C285   1.344       .  A
C285        C286   1.383       .  A
C285        H288   1.082       .  S
C286        C287   1.382       .  A
C287        H289   1.082       .  S
N290        N291   1.321       .  A
N290        C294   1.346       .  A
N291        C292   1.342       .  A
C292        C293   1.384       .  A
C292        H295   1.081       .  S
C293        C294   1.388       .  A
C293        C425   1.480       .  S
C294        H296   1.082       .  S
N297        N298   1.320       .  A
N297        C301   1.343       .  A
N297       Cu305   2.070       .  S
N298        C299   1.344       .  A
N298       Cu304   2.069       .  S
C299        C300   1.389       .  A
C299        H302   1.080       .  S
C300        C301   1.388       .  A
C300        C337   1.486       .  S
C301        H303   1.080       .  S
Cu304       N307   2.069       .  S
Cu305       N315   2.071       .  S
Cu306       N308   2.086       .  S
Cu306       N314   2.086       .  S
N307        N308   1.323       .  A
N307        C311   1.344       .  A
N308        C309   1.347       .  A
C309        C310   1.385       .  A
C309        H312   1.081       .  S
C310        C311   1.381       .  A
C311        H313   1.082       .  S
N314        N315   1.321       .  A
N314        C318   1.347       .  A
N315        C316   1.343       .  A
C316        C317   1.387       .  A
C316        H319   1.083       .  S
C317        C318   1.391       .  A
C317        C401   1.489       .  S
C318        H320   1.083       .  S
C321        C322   1.414       .  A
C321        C326   1.402       .  A
C321        C473   1.482       .  S
C322        C323   1.402       .  A
C322        C433   1.478       .  S
C323        C324   1.403   1_545  A
C323        H328   1.085       .  S
C324        C325   1.415       .  A
C324        C369   1.483   1_554  S
C325        C326   1.404   1_565  A
C325        C345   1.479   1_554  S
C326        H327   1.084       .  S
C329        C330   1.415       .  A
C329        C334   1.404       .  A
C329        C521   1.478       .  S
C330        C331   1.402       .  A
C330        C481   1.488       .  S
C331        C332   1.404       .  A
C331        H336   1.084       .  S
C332        C333   1.417       .  A
C332        C361   1.478   1_554  S
C333        C334   1.403       .  A
C333        C393   1.489   1_554  S
C334        H335   1.084       .  S
C337        C338   1.408       .  A
C337        C342   1.408       .  A
C338        C339   1.396   1_556  A
C338        H347   1.080       .  S
C339        C340   1.400   1_554  A
C339        H348   1.084       .  S
C340        C346   1.403   1_556  A
C340        C341   1.414       .  A
C341        C343   1.402       .  A
C341        C342   1.403       .  A
C342        H349   1.083       .  S
C343        C344   1.396       .  A
C343        H350   1.084       .  S
C344        C345   1.403       .  A
C344        H351   1.083       .  S
C345        C346   1.402   1_556  A
C346        H352   1.085       .  S
C353        C354   1.405       .  A
C353        C358   1.405       .  A
C354        C355   1.395       .  A
C354        H363   1.082       .  S
C355        C356   1.400       .  A
C355        H364   1.086   1_556  S
C356        C362   1.400       .  A
C356        C357   1.415       .  A
C357        C359   1.403       .  A
C357        C358   1.403       .  A
C358        H365   1.086       .  S
C359        C360   1.397       .  A
C359        H366   1.086       .  S
C360        C361   1.403       .  A
C360        H367   1.082       .  S
C361        C362   1.402       .  A
C362        H368   1.087   1_556  S
C369        C370   1.403       .  A
C369        C374   1.405       .  A
C370        C371   1.398       .  A
C370        H379   1.083   1_565  S
C371        C372   1.403       .  A
C371        H380   1.084       .  S
C372        C378   1.406       .  A
C372        C373   1.415       .  A
C373        C375   1.402       .  A
C373        C374   1.404       .  A
C374        H381   1.084   1_556  S
C375        C376   1.397       .  A
C375        H382   1.083   1_556  S
C376        C377   1.405       .  A
C376        H383   1.083       .  S
C377        C378   1.405       .  A
C378        H384   1.084       .  S
C385        C386   1.408       .  A
C385        C390   1.408       .  A
C386        C387   1.399   1_556  A
C386        H395   1.081       .  S
C387        C388   1.402   1_554  A
C387        H396   1.084       .  S
C388        C394   1.407   1_556  A
C388        C389   1.414       .  A
C389        C391   1.402       .  A
C389        C390   1.406       .  A
C390        H397   1.083       .  S
C391        C392   1.397       .  A
C391        H398   1.083       .  S
C392        C393   1.405       .  A
C392        H399   1.083       .  S
C393        C394   1.406   1_556  A
C394        H400   1.084       .  S
C401        C402   1.408       .  A
C401        C406   1.408       .  A
C402        C403   1.398       .  A
C402        H411   1.081       .  S
C403        C404   1.400       .  A
C403        H412   1.085   1_556  S
C404        C410   1.406       .  A
C404        C405   1.414       .  A
C405        C407   1.402       .  A
C405        C406   1.406       .  A
C406        H413   1.085       .  S
C407        C408   1.397       .  A
C407        H414   1.084       .  S
C408        C409   1.406       .  A
C408        H415   1.083       .  S
C409        C410   1.405       .  A
C410        H416   1.085   1_556  S
C417        C418   1.402       .  A
C417        C422   1.403       .  A
C418        C419   1.398       .  A
C418        H427   1.083       .  S
C419        C420   1.403       .  A
C419        H428   1.084       .  S
C420        C426   1.404       .  A
C420        C421   1.414       .  A
C421        C423   1.400       .  A
C421        C422   1.400       .  A
C422        H429   1.086   1_556  S
C423        C424   1.395       .  A
C423        H430   1.085   1_556  S
C424        C425   1.406       .  A
C424        H431   1.081       .  S
C425        C426   1.406       .  A
C426        H432   1.085       .  S
C433        C434   1.403       .  A
C433        C438   1.402       .  A
C434        C435   1.397       .  A
C434        H443   1.083       .  S
C435        C436   1.403       .  A
C435        H444   1.083       .  S
C436        C442   1.404       .  A
C436        C437   1.415       .  A
C437        C439   1.401       .  A
C437        C438   1.403       .  A
C438        H445   1.084       .  S
C439        C440   1.397       .  A
C439        H446   1.083       .  S
C440        C441   1.405       .  A
C440        H447   1.083       .  S
C441        C442   1.406       .  A
C442        H448   1.084       .  S
C449        C450   1.406       .  A
C449        C454   1.407       .  A
C450        C451   1.398       .  A
C450        H459   1.083       .  S
C451        C452   1.402       .  A
C451        H460   1.084       .  S
C452        C458   1.405       .  A
C452        C453   1.414       .  A
C453        C455   1.404       .  A
C453        C454   1.406       .  A
C454        H461   1.083       .  S
C455        C456   1.399       .  A
C455        H462   1.083       .  S
C456        C457   1.403       .  A
C456        H463   1.083   1_655  S
C457        C458   1.405       .  A
C458        H464   1.084       .  S
C465        C466   1.408       .  A
C465        C470   1.405       .  A
C466        C467   1.398       .  A
C466        H475   1.081       .  S
C467        C468   1.401       .  A
C467        H476   1.085       .  S
C468        C474   1.405       .  A
C468        C469   1.414       .  A
C469        C471   1.400       .  A
C469        C470   1.401       .  A
C470        H477   1.084       .  S
C471        C472   1.394       .  A
C471        H478   1.085       .  S
C472        C473   1.404       .  A
C472        H479   1.082       .  S
C473        C474   1.404       .  A
C474        H480   1.086       .  S
C481        C482   1.405       .  A
C481        C486   1.404       .  A
C482        C483   1.398       .  A
C482        H491   1.083       .  S
C483        C484   1.402       .  A
C483        H492   1.084       .  S
C484        C490   1.408       .  A
C484        C485   1.414       .  A
C485        C487   1.399       .  A
C485        C486   1.405       .  A
C486        H493   1.085       .  S
C487        C488   1.396       .  A
C487        H494   1.084       .  S
C488        C489   1.410       .  A
C488        H495   1.081       .  S
C489        C490   1.408       .  A
C490        H496   1.084       .  S
C497        C498   1.407       .  A
C497        C502   1.407       .  A
C498        C499   1.396       .  A
C498        H507   1.082       .  S
C499        C500   1.400       .  A
C499        H508   1.083       .  S
C500        C506   1.403       .  A
C500        C501   1.414       .  A
C501        C503   1.402       .  A
C501        C502   1.404       .  A
C502        H509   1.082       .  S
C503        C504   1.397       .  A
C503        H510   1.083       .  S
C504        C505   1.404       .  A
C504        H511   1.083       .  S
C505        C506   1.402       .  A
C506        H512   1.084       .  S
C513        C514   1.405       .  A
C513        C518   1.405       .  A
C514        C515   1.396       .  A
C514        H523   1.083       .  S
C515        C516   1.401       .  A
C515        H524   1.084       .  S
C516        C522   1.401       .  A
C516        C517   1.414       .  A
C517        C519   1.404       .  A
C517        C518   1.404       .  A
C518        H525   1.084       .  S
C519        C520   1.398       .  A
C519        H526   1.084       .  S
C520        C521   1.402       .  A
C520        H527   1.083       .  S
C521        C522   1.403       .  A
C522        H528   1.085       .  S
C529        C530   1.406       .  A
C529        C534   1.406       .  A
C530        C531   1.398       .  A
C530        H539   1.082       .  S
C531        C532   1.402       .  A
C531        H540   1.083       .  S
C532        C538   1.406       .  A
C532        C533   1.415       .  A
C533        C535   1.402       .  A
C533        C534   1.405       .  A
C534        H541   1.084       .  S
C535        C536   1.397       .  A
C535        H542   1.083       .  S
C536        C537   1.403       .  A
C536        H543   1.084       .  S
C537        C538   1.403       .  A
C538        H544   1.084       .  S
C545        C546   1.405       .  A
C545        C550   1.406       .  A
C546        C547   1.398       .  A
C546        H555   1.083       .  S
C547        C548   1.402       .  A
C547        H556   1.083       .  S
C548        C554   1.405       .  A
C548        C549   1.414       .  A
C549        C551   1.402       .  A
C549        C550   1.405       .  A
C550        H557   1.083       .  S
C551        C552   1.397       .  A
C551        H558   1.083       .  S
C552        C553   1.404       .  A
C552        H559   1.084       .  S
C553        C554   1.405       .  A
C554        H560   1.084       .  S
C561        C562   1.407       .  A
C561        C566   1.408       .  A
C562        C563   1.400       .  A
C562        H571   1.082       .  S
C563        C564   1.402       .  A
C563        H572   1.084       .  S
C564        C570   1.407       .  A
C564        C565   1.414       .  A
C565        C567   1.402       .  A
C565        C566   1.406       .  A
C566        H573   1.083       .  S
C567        C568   1.397       .  A
C567        H574   1.083       .  S
C568        C569   1.405       .  A
C568        H575   1.083       .  S
C569        C570   1.405       .  A
C570        H576   1.085       .  S
C577        C578   1.409       .  A
C577        C582   1.408       .  A
C578        C579   1.397       .  A
C578        H587   1.081       .  S
C579        C580   1.400       .  A
C579        H588   1.084       .  S
C580        C586   1.405       .  A
C580        C581   1.414       .  A
C581        C583   1.402       .  A
C581        C582   1.406       .  A
C582        H589   1.084       .  S
C583        C584   1.397       .  A
C583        H590   1.085       .  S
C584        C585   1.403       .  A
C584        H591   1.083       .  S
C585        C586   1.404       .  A
C586        H592   1.085       .  S
C593        C594   1.406       .  A
C593        C598   1.407       .  A
C594        C595   1.397       .  A
C594        H603   1.083       .  S
C595        C596   1.401       .  A
C595        H604   1.084       .  S
C596        C602   1.406       .  A
C596        C597   1.415       .  A
C597        C599   1.403       .  A
C597        C598   1.408       .  A
C598        H605   1.084       .  S
C599        C600   1.399       .  A
C599        H606   1.083       .  S
C600        C601   1.405       .  A
C600        H607   1.083       .  S
C601        C602   1.404       .  A
C602        H608   1.084       .  S
C609        C610   1.404       .  A
C609        C614   1.403       .  A
C610        C611   1.397       .  A
C610        H619   1.083       .  S
C611        C612   1.402       .  A
C611        H620   1.084       .  S
C612        C618   1.406       .  A
C612        C613   1.415       .  A
C613        C615   1.401       .  A
C613        C614   1.406       .  A
C614        H621   1.086       .  S
C615        C616   1.398       .  A
C615        H622   1.085       .  S
C616        C617   1.407       .  A
C616        H623   1.081       .  S
C617        C618   1.408       .  A
C618        H624   1.083       .  S
C625        C626   1.405       .  A
C625        C630   1.402       .  A
C626        C627   1.399       .  A
C626        H635   1.083       .  S
C627        C628   1.403       .  A
C627        H636   1.083       .  S
C628        C634   1.407       .  A
C628        C629   1.415       .  A
C629        C631   1.399       .  A
C629        C630   1.403       .  A
C630        H637   1.084   1_655  S
C631        C632   1.395       .  A
C631        H638   1.083       .  S
C632        C633   1.406       .  A
C632        H639   1.083       .  S
C633        C634   1.407       .  A
C634        H640   1.083       .  S
C641        C642   1.402       .  A
C641        C646   1.405       .  A
C642        C643   1.399       .  A
C642        H651   1.084       .  S
C643        C644   1.404       .  A
C643        H652   1.083       .  S
C644        C650   1.406       .  A
C644        C645   1.414       .  A
C645        C647   1.402       .  A
C645        C646   1.405       .  A
C646        H653   1.084       .  S
C647        C648   1.398       .  A
C647        H654   1.083       .  S
C648        C649   1.405       .  A
C648        H655   1.083       .  S
C649        C650   1.408       .  A
C650        H656   1.083       .  S
C657        C658   1.408       .  A
C657        C662   1.411       .  A
C658        C659   1.395       .  A
C658        H667   1.081       .  S
C659        C660   1.399       .  A
C659        H668   1.084       .  S
C660        C666   1.403       .  A
C660        C661   1.413       .  A
C661        C663   1.406       .  A
C661        C662   1.412       .  A
C662        H669   1.084       .  S
C663        C664   1.403       .  A
C663        H670   1.084       .  S
C664        C665   1.405       .  A
C664        H671   1.083       .  S
C665        C666   1.406       .  A
C666        H672   1.084       .  S
C673        C674   1.408       .  A
C673        C678   1.406       .  A
C674        C675   1.396       .  A
C674        H683   1.081       .  S
C675        C676   1.399       .  A
C675        H684   1.085       .  S
C676        C682   1.405       .  A
C676        C677   1.415       .  A
C677        C679   1.402       .  A
C677        C678   1.408       .  A
C678        H685   1.085       .  S
C679        C680   1.398       .  A
C679        H686   1.085       .  S
C680        C681   1.405       .  A
C680        H687   1.083       .  S
C681        C682   1.405       .  A
C682        H688   1.085       .  S
C689        C690   1.408       .  A
C689        C694   1.409       .  A
C690        C691   1.398       .  A
C690        H699   1.082       .  S
C691        C692   1.400       .  A
C691        H700   1.082       .  S
C692        C698   1.406       .  A
C692        C693   1.414       .  A
C693        C695   1.404       .  A
C693        C694   1.408       .  A
C694        H701   1.081       .  S
C695        C696   1.399       .  A
C695        H702   1.082       .  S
C696        C697   1.404       .  A
C696        H703   1.084       .  S
C697        C698   1.404       .  A
C698        H704   1.083       .  S
C705        C706   1.405       .  A
C705        C710   1.407       .  A
C706        C707   1.397       .  A
C706        H715   1.083       .  S
C707        C708   1.401       .  A
C707        H716   1.083       .  S
C708        C714   1.404       .  A
C708        C709   1.415       .  A
C709        C711   1.404       .  A
C709        C710   1.406       .  A
C710        H717   1.083       .  S
C711        C712   1.399       .  A
C711        H718   1.083       .  S
C712        C713   1.403       .  A
C712        H719   1.083       .  S
C713        C714   1.404       .  A
C714        H720   1.084       .  S
