geometry optimzed in LAMMPS
_audit_creation_date              2020-12-01 
_audit_creation_method            'lammps2cif' 
_symmetry_space_group_name_H-M    'P1' 
_symmetry_Int_Tables_number       1 
_symmetry_cell_setting            triclinic 
loop_ 
_symmetry_equiv_pos_as_xyz 
  x,y,z 
_cell_length_a                    45.45642245 
_cell_length_b                    44.40282284746808 
_cell_length_c                    61.7922369665919 
_cell_angle_alpha                 89.99434776376432 
_cell_angle_beta                  90.02029473083054 
_cell_angle_gamma                 124.10405912138914 
loop_ 
_atom_site_label 
_atom_site_type_symbol 
_atom_site_fract_x 
_atom_site_fract_y 
_atom_site_fract_z 
_atom_site_charge 
C1          C  0.16733603  0.32980521  0.62441915     0.47700
H2          H  0.16763259  0.33031393  0.60641759    -0.01300
C3          C  0.16650093  0.32839889  0.66667462     0.47800
H4          H  0.16611381  0.32773060  0.68465832    -0.01300
C5          C  0.14705356  0.29146351  0.63396996    -0.15000
C6          C  0.20427990  0.34935574  0.63468617    -0.14700
C7          C  0.14982093  0.34739635  0.63453306    -0.15100
C8          C  0.14670564  0.29051366  0.65609588    -0.15100
C9          C  0.20402147  0.34870074  0.65680848    -0.14700
C10         C  0.14923370  0.34674215  0.65667478    -0.15000
C11         C  0.16719255  0.32984199  0.86263622     0.47700
H12         H  0.16698417  0.33042632  0.88063207    -0.01300
C13         C  0.16760605  0.32828044  0.82038534     0.47800
H14         H  0.16773720  0.32754059  0.80240729    -0.01300
C15         C  0.14825207  0.29151847  0.85318454    -0.15000
C16         C  0.14890793  0.34628570  0.85204373    -0.14700
C17         C  0.20446035  0.35041031  0.85275761    -0.15100
C18         C  0.14844791  0.29047441  0.83107159    -0.15100
C19         C  0.14917860  0.34576296  0.82990212    -0.14700
C20         C  0.20487621  0.34956869  0.83063811    -0.15000
C21         C  0.00150384  0.48358150  0.72253426     0.47700
H22         H  0.00108291  0.48361137  0.70454711    -0.01300
C23         C  0.00249091  0.48373737  0.76489531     0.47800
H24         H  0.00287884  0.48386498  0.78288289    -0.01300
C25         C  0.02170661  0.02288431  0.73240874    -0.15000
C26         C  0.46371408  0.46383715  0.73320243    -0.14700
C27         C  0.01824555  0.46475634  0.73235628    -0.15100
C28         C  0.02165340  0.02280939  0.75456142    -0.15100
C29         C  0.46506221  0.46472976  0.75533748    -0.14700
C30         C  0.01879398  0.46485296  0.75449418    -0.15000
C31         C  0.30444057  0.12602578  0.36223366     0.48700
H32         H  0.30520036  0.12557630  0.38022098    -0.01300
C33         C  0.30272108  0.12728202  0.32001507     0.47800
H34         H  0.30202073  0.12788448  0.30204666    -0.01300
C35         C  0.32435311  0.16434974  0.35268459    -0.15000
C36         C  0.32107222  0.10812939  0.35129412    -0.14700
C37         C  0.26691834  0.10671136  0.35283034    -0.15100
C38         C  0.32349459  0.16525080  0.33057529    -0.15100
C39         C  0.32015255  0.10854855  0.32916076    -0.14700
C40         C  0.26581984  0.10732527  0.33072960    -0.15000
C41         C  0.30317620  0.12758287  0.12392887     0.47700
H42         H  0.30309529  0.12721829  0.10592615    -0.01300
C43         C  0.30346076  0.12861609  0.16619289     0.47800
H44         H  0.30358252  0.12910712  0.18417807    -0.01300
C45         C  0.32369336  0.16584391  0.13358989    -0.15000
C46         C  0.26614223  0.10836621  0.13398972    -0.14700
C47         C  0.32007524  0.10943232  0.13412454    -0.15100
C48         C  0.32380632  0.16663351  0.15571650    -0.15100
C49         C  0.26610766  0.10886103  0.15611025    -0.14700
C50         C  0.32030669  0.10979197  0.15626537    -0.15000
C51         C  0.46934046  0.47184185  0.22303741     0.47700
H52         H  0.46980802  0.47173756  0.20505190    -0.01300
C53         C  0.46833370  0.47195932  0.26539677     0.47800
H54         H  0.46788208  0.47192410  0.28338151    -0.01300
C55         C  0.44927653  0.43371768  0.23316515    -0.15000
C56         C  0.00637454  0.49216855  0.23326730    -0.14700
C57         C  0.45164019  0.48978666  0.23270449    -0.15100
C58         C  0.44877643  0.43375049  0.25531366    -0.15100
C59         C  0.00651604  0.49248765  0.25542329    -0.14700
C60         C  0.45112809  0.48990415  0.25484730    -0.15000
O61         O  0.04781672  0.06196556  0.97275238    -0.78600
O62         O  0.47521429  0.41055757  0.01288842    -0.63300
O63         O  0.00304961  0.49038146  0.97568744    -1.09900
C64         C  0.43296855  0.00730217  0.02454689     1.08300
O65         O  0.41970704  0.39469178  0.01251242    -0.76500
O66         O  0.40008516  0.43436790  0.99275483    -0.64100
Ni67       Ni  0.04776943  0.01966455  0.96600708     1.34900
C68         C  0.41081136  0.45495587  0.97634632     0.87000
O69         O  0.01079741  0.43210207  0.97559273    -0.77100
O70         O  0.05288694  0.48191745  0.95735319    -0.87300
C71         C  0.44284363  0.38861840  0.01783373     0.86600
O72         O  0.07018480  0.02527907  0.99317861    -0.65500
O73         O  0.41957497  0.47805855  0.02879200    -0.84800
C74         C  0.06057079  0.00508663  0.00972908     0.87400
C75         C  0.03561069  0.44805021  0.96160919     1.09000
H76         H  0.48385779  0.47992303  0.02448358     0.40800
O77         O  0.47023147  0.47003458  0.01130648    -1.07500
O78         O  0.44132689  0.48437922  0.97488552    -0.64100
Ni79       Ni  0.47868514  0.00546403  0.99219777     1.26300
O80         O  0.03249545  0.47591717  0.01169984    -0.64400
O81         O  0.45717163  0.02320420  0.01021543    -0.76600
C82         C  0.02375069  0.06655227  0.96720396     0.86800
O83         O  0.49163801  0.04384293  0.97232297    -0.63800
Ni84       Ni  0.42163079  0.43782649  0.01992107     1.27400
Ni85       Ni  0.49068970  0.45061402  0.99384248     1.26100
H86         H  0.49042011  0.48101176  0.96213400     0.41300
O87         O  0.41951118  0.39199546  0.47341985    -0.78600
O88         O  0.49379359  0.04621634  0.51383465    -0.63300
O89         O  0.46866379  0.46783403  0.47512113    -1.09900
C90         C  0.03857202  0.45027975  0.52386678     1.08300
O91         O  0.04952482  0.06459796  0.51280493    -0.76500
O92         O  0.07156687  0.02697898  0.49314094    -0.64100
Ni93       Ni  0.41980843  0.43465679  0.46722532     1.34900
C94         C  0.06142137  0.00603331  0.47691610     0.87000
O95         O  0.45735485  0.02316519  0.47646592    -0.77100
O96         O  0.41581129  0.47410999  0.45933682    -0.87300
C97         C  0.02551440  0.06927136  0.51833053     0.86600
O98         O  0.39973304  0.43012566  0.49509330    -0.65500
O99         O  0.05507722  0.48420243  0.52775141    -0.84800
C100        C  0.41027354  0.45162324  0.51107274     0.87400
C101        C  0.43216846  0.00617145  0.46278105     1.09000
H102        H  0.48960078  0.47940724  0.52415261     0.40800
O103        O  0.00240391  0.48958483  0.51077653    -1.07500
O104        O  0.03201640  0.47601952  0.47441760    -0.64100
Ni105      Ni  0.49033561  0.44946818  0.49230830     1.26300
O106        O  0.43992931  0.48215563  0.51171751    -0.64400
O107        O  0.01277112  0.43307093  0.51063875    -0.76600
C108        C  0.44348230  0.38708985  0.46816463     0.86800
O109        O  0.47568753  0.40980154  0.47314242    -0.63800
Ni110      Ni  0.04997348  0.02285463  0.52039064     1.27400
Ni111      Ni  0.47960269  0.00651092  0.49475862     1.26100
H112        H  0.48173548  0.47765843  0.46176361     0.41300
C113        C  0.18315273  0.06620237  0.09191256     0.19300
C114        C  0.19219557  0.06505626  0.07041161    -0.09800
C115        C  0.16654109  0.05230856  0.05415244    -0.10700
C116        C  0.13168643  0.04063133  0.05929820     0.20900
C117        C  0.12254720  0.04173128  0.08081830    -0.12700
C118        C  0.14827764  0.05451504  0.09712708    -0.11000
C119        C  0.10556062  0.02764036  0.04238010     0.01800
C120        C  0.08472451  0.01712801  0.02761198    -0.31000
C121        C  0.21005067  0.07985289  0.10836748     0.03200
C122        C  0.23463894  0.09229787  0.12077589    -0.32700
H123        H  0.21910867  0.07410493  0.06621631     0.14300
H124        H  0.17388270  0.05159240  0.03757326     0.14100
H125        H  0.09564569  0.03277187  0.08495943     0.13900
H126        H  0.14104222  0.05535701  0.11371121     0.13000
C127        C  0.40542117  0.30337230  0.05865045     0.19300
C128        C  0.41802294  0.31177001  0.07998549    -0.09800
C129        C  0.40196922  0.28506715  0.09605965    -0.10700
C130        C  0.37320360  0.24992731  0.09083908     0.20900
C131        C  0.36072703  0.24148039  0.06949369    -0.12700
C132        C  0.37676330  0.26817402  0.05342987    -0.11000
C133        C  0.35647486  0.22234549  0.10724254     0.01800
C134        C  0.34175769  0.19764242  0.11998069    -0.31000
C135        C  0.42053840  0.33146016  0.04247925     0.03200
C136        C  0.43179832  0.35661103  0.03013540    -0.32700
H137        H  0.43997150  0.33901756  0.08422115     0.14300
H138        H  0.41181578  0.29184134  0.11251916     0.14100
H139        H  0.33850045  0.21434314  0.06531055     0.13900
H140        H  0.36661325  0.26149409  0.03703180     0.13000
C141        C  0.36538017  0.07427963  0.09338642     0.19300
C142        C  0.38977081  0.09929799  0.07817288    -0.09800
C143        C  0.40499505  0.08852981  0.06299731    -0.10700
C144        C  0.39579600  0.05268579  0.06298899     0.20900
C145        C  0.37139602  0.02771606  0.07820324    -0.12700
C146        C  0.35621832  0.03847557  0.09336584    -0.11000
C147        C  0.41133720  0.04115125  0.04762562     0.01800
C148        C  0.42250088  0.02786616  0.03606250    -0.31000
C149        C  0.34938411  0.08523368  0.10876818     0.03200
C150        C  0.33592132  0.09532796  0.12094885    -0.32700
H151        H  0.39694993  0.12704899  0.07803298     0.14300
H152        H  0.40610395  0.52797459  0.09073823     0.14100
H153        H  0.36413684  0.99993523  0.07834624     0.13900
H154        H  0.33735243  0.01891656  0.10502745     0.13000
C155        C  0.40264319  0.33560126  0.20261967     0.19300
C156        C  0.40693233  0.33095188  0.18068618    -0.09800
C157        C  0.39100845  0.29592426  0.17213471    -0.10700
C158        C  0.37085602  0.26538359  0.18549209     0.20900
C159        C  0.36645992  0.27003489  0.20740352    -0.12700
C160        C  0.38221972  0.30504604  0.21591634    -0.11000
C161        C  0.35435223  0.22939971  0.17656232     0.01800
C162        C  0.34049348  0.20008251  0.16794526    -0.31000
C163        C  0.41946746  0.37156560  0.21165666     0.03200
C164        C  0.43331944  0.40069907  0.22051624    -0.32700
H165        H  0.42260797  0.35434191  0.17023582     0.14300
H166        H  0.39444876  0.29264611  0.15513912     0.14100
H167        H  0.35079491  0.24665604  0.21786572     0.13900
H168        H  0.37842606  0.30829841  0.23283731     0.13000
C169        C  0.40324737  0.03495561  0.20196852     0.19300
C170        C  0.39135042  0.02872558  0.18048839    -0.09800
C171        C  0.37370575  0.04402420  0.17249890    -0.10700
C172        C  0.36775994  0.06553019  0.18596396     0.20900
C173        C  0.37960475  0.07171349  0.20745572    -0.12700
C174        C  0.39733970  0.05650057  0.21542143    -0.11000
C175        C  0.35007465  0.08164306  0.17749567     0.01800
C176        C  0.33595357  0.09481041  0.16891366    -0.31000
C177        C  0.42117837  0.01905930  0.21037765     0.03200
C178        C  0.43595734  0.50449286  0.21974081    -0.32700
H179        H  0.38111101  0.49835462  0.17524328     0.14300
H180        H  0.36476597  0.03915728  0.15582506     0.14100
H181        H  0.37526563  0.08836258  0.21800200     0.13900
H182        H  0.40651190  0.06159283  0.23203740     0.13000
C183        C  0.10133861  0.03551820  0.20128264     0.19300
C184        C  0.12720990  0.03693457  0.21444598    -0.09800
C185        C  0.16163262  0.05217006  0.20658662    -0.10700
C186        C  0.17024535  0.06577387  0.18543984     0.20900
C187        C  0.14429660  0.06408872  0.17220095    -0.12700
C188        C  0.10992217  0.04905828  0.18011810    -0.11000
C189        C  0.20546399  0.08106712  0.17710873     0.01800
C190        C  0.23397160  0.09378652  0.16862598    -0.31000
C191        C  0.06623327  0.02049282  0.20972650     0.03200
C192        C  0.03846349  0.50733180  0.22061898    -0.32700
H193        H  0.11929151  0.51811381  0.23040470     0.14300
H194        H  0.18141848  0.05318549  0.21693315     0.14100
H195        H  0.15066852  0.07443612  0.15579072     0.13900
H196        H  0.09012631  0.04804916  0.16978578     0.13000
C197        C  0.13189997  0.04078230  0.42709436     0.19300
C198        C  0.12578698  0.01949386  0.40872371    -0.09800
C199        C  0.15183287  0.03221083  0.39264673    -0.10700
C200        C  0.18401825  0.06622103  0.39493369     0.20900
C201        C  0.18991492  0.08763165  0.41317914    -0.12700
C202        C  0.16391403  0.07495006  0.42921669    -0.11000
C203        C  0.21152088  0.07895580  0.37897023     0.01800
C204        C  0.23603521  0.09089307  0.36655895    -0.31000
C205        C  0.10585029  0.02743210  0.44406183     0.03200
C206        C  0.08514066  0.01719210  0.45887287    -0.32700
H207        H  0.10111254  0.99301198  0.40694397     0.14300
H208        H  0.14704996  0.01544855  0.37859220     0.14100
H209        H  0.21474382  0.11394432  0.41510536     0.13900
H210        H  0.16890926  0.09159987  0.44336408     0.13000
C211        C  0.40776486  0.30176106  0.42770990     0.19300
C212        C  0.42132832  0.30946660  0.40658485    -0.09800
C213        C  0.40492210  0.28274209  0.39053117    -0.10700
C214        C  0.37485753  0.24827872  0.39555870     0.20900
C215        C  0.36148806  0.24048800  0.41671656    -0.12700
C216        C  0.37787314  0.26719873  0.43275645    -0.11000
C217        C  0.35774056  0.22071064  0.37915132     0.01800
C218        C  0.34276873  0.19607850  0.36636587    -0.31000
C219        C  0.42284564  0.33009693  0.44372846     0.03200
C220        C  0.43351695  0.35528723  0.45596960    -0.32700
H221        H  0.44421612  0.33624682  0.40246727     0.14300
H222        H  0.41547094  0.28900372  0.37421861     0.14100
H223        H  0.33826958  0.21387784  0.42076062     0.13900
H224        H  0.36695783  0.26108729  0.44897836     0.13000
C225        C  0.36798228  0.07422058  0.39163414     0.19300
C226        C  0.38676468  0.05937882  0.38501947    -0.09800
C227        C  0.40158387  0.04857535  0.40047880    -0.10700
C228        C  0.39774486  0.05262837  0.42260309     0.20900
C229        C  0.37926398  0.06780433  0.42919662    -0.12700
C230        C  0.36445442  0.07860813  0.41374479    -0.11000
C231        C  0.41141193  0.03966301  0.43842258     0.01800
C232        C  0.42166269  0.02612371  0.45055318    -0.31000
C233        C  0.35198027  0.08470673  0.37588870     0.03200
C234        C  0.33796979  0.09441446  0.36384245    -0.32700
H235        H  0.38968409  0.05589257  0.36797284     0.14300
H236        H  0.41567852  0.03670002  0.39519948     0.14100
H237        H  0.37597199  0.07090146  0.44624096     0.13900
H238        H  0.34999644  0.09008513  0.41903060     0.13000
C239        C  0.37026177  0.26433680  0.30129620     0.19300
C240        C  0.36523178  0.28918848  0.31169139    -0.09800
C241        C  0.38145537  0.32453098  0.30361297    -0.10700
C242        C  0.40294517  0.33526962  0.28515025     0.20900
C243        C  0.40813466  0.31047609  0.27481622    -0.12700
C244        C  0.39174949  0.27506191  0.28282299    -0.11000
C245        C  0.41921458  0.37142146  0.27652883     0.01800
C246        C  0.43273914  0.40072891  0.26794637    -0.31000
C247        C  0.35380031  0.22815379  0.30990546     0.03200
C248        C  0.33995450  0.19876318  0.31842626    -0.32700
H249        H  0.34878104  0.28123595  0.32603782     0.14300
H250        H  0.37722334  0.34342488  0.31173204     0.14100
H251        H  0.42477121  0.31850242  0.26055133     0.13900
H252        H  0.39593029  0.25614728  0.27468063     0.13000
C253        C  0.36794723  0.06616073  0.29788855     0.19300
C254        C  0.35321895  0.04099877  0.28086566    -0.09800
C255        C  0.37075218  0.02540827  0.27315132    -0.10700
C256        C  0.40307198  0.03491705  0.28241462     0.20900
C257        C  0.41788143  0.06026917  0.29931221    -0.12700
C258        C  0.40033112  0.07577868  0.30705311    -0.11000
C259        C  0.42124872  0.01911751  0.27430484     0.01800
C260        C  0.43519799  0.50514957  0.26701147    -0.31000
C261        C  0.34951655  0.08127868  0.30662043     0.03200
C262        C  0.33536380  0.09391180  0.31579157    -0.32700
H263        H  0.32815464  0.03326910  0.27368730     0.14300
H264        H  0.35914583  0.00597676  0.25998322     0.14100
H265        H  0.44289173  0.06793823  0.30654236     0.13900
H266        H  0.41187474  0.09507126  0.32029245     0.13000
C267        C  0.16972829  0.06448160  0.30114976     0.19300
C268        C  0.13941617  0.03757378  0.31243800    -0.09800
C269        C  0.10553257  0.02325116  0.30381837    -0.10700
C270        C  0.10176445  0.03591968  0.28392569     0.20900
C271        C  0.13207794  0.06300752  0.27272964    -0.12700
C272        C  0.16595236  0.07715399  0.28127002    -0.11000
C273        C  0.06697823  0.02080392  0.27474861     0.01800
C274        C  0.03884547  0.50799676  0.26799898    -0.31000
C275        C  0.20456233  0.07951883  0.31020091     0.03200
C276        C  0.23308251  0.09218372  0.31873668    -0.32700
H277        H  0.14198469  0.02768199  0.32787999     0.14300
H278        H  0.08560317  0.50607818  0.31461102     0.14100
H279        H  0.12952445  0.07319540  0.25740594     0.13900
H280        H  0.18914428  0.09805113  0.27243457     0.13000
C281        C  0.09722067  0.20646276  0.89526306     0.19300
C282        C  0.07650716  0.16996045  0.88883551    -0.09800
C283        C  0.05876830  0.14253543  0.90436630    -0.10700
C284        C  0.06159212  0.15153835  0.92635402     0.20900
C285        C  0.08219443  0.18805148  0.93276892    -0.12700
C286        C  0.09993993  0.21547726  0.91723696    -0.11000
C287        C  0.04516121  0.12314263  0.94230398     0.01800
C288        C  0.03367311  0.09798311  0.95465175    -0.31000
C289        C  0.11546089  0.23479445  0.87939758     0.03200
C290        C  0.13061777  0.25980427  0.86688484    -0.32700
H291        H  0.07417966  0.16272243  0.87188721     0.14300
H292        H  0.04316410  0.11433754  0.89926608     0.14100
H293        H  0.08482600  0.19526839  0.94974060     0.13900
H294        H  0.11588254  0.24366198  0.92235005     0.13000
C295        C  0.34065210  0.42118665  0.92639414     0.19300
C296        C  0.31988393  0.38401608  0.92144713    -0.09800
C297        C  0.29393730  0.37089427  0.90532756    -0.10700
C298        C  0.28867526  0.39489014  0.89408127     0.20900
C299        C  0.30966682  0.43213055  0.89886180    -0.12700
C300        C  0.33564564  0.44527040  0.91500336    -0.11000
C301        C  0.26071539  0.38091585  0.87833365     0.01800
C302        C  0.23584344  0.36773253  0.86611637    -0.31000
C303        C  0.36635497  0.43431123  0.94355639     0.03200
C304        C  0.38702676  0.44427102  0.95837417    -0.32700
H305        H  0.32348487  0.36516242  0.93020518     0.14300
H306        H  0.27770444  0.34202313  0.90181606     0.14100
H307        H  0.30566472  0.45087039  0.89031729     0.13900
H308        H  0.35151731  0.47405497  0.91875793     0.13000
C309        C  0.06838895  0.39912851  0.92222984     0.19300
C310        C  0.06220252  0.39946036  0.90002266    -0.09800
C311        C  0.07773920  0.38878536  0.88502568    -0.10700
C312        C  0.09961574  0.37783752  0.89217462     0.20900
C313        C  0.10539960  0.37702692  0.91438745    -0.12700
C314        C  0.08986012  0.38768550  0.92937828    -0.11000
C315        C  0.11654923  0.36784911  0.87683076     0.01800
C316        C  0.13128903  0.35889124  0.86486812    -0.31000
C317        C  0.05448526  0.41262362  0.93750053     0.03200
C318        C  0.04472995  0.42691761  0.94938537    -0.32700
H319        H  0.04582400  0.40847882  0.89429769     0.14300
H320        H  0.07301502  0.38944218  0.86790230     0.14100
H321        H  0.12224403  0.36856610  0.92009245     0.13900
H322        H  0.09501909  0.38753955  0.94648371     0.13000
C323        C  0.37008199  0.42318059  0.78556804     0.19300
C324        C  0.34046553  0.40047790  0.77241217    -0.09800
C325        C  0.30612251  0.38603483  0.78022908    -0.10700
C326        C  0.30120307  0.39413325  0.80129074     0.20900
C327        C  0.33082032  0.41683794  0.81444549    -0.12700
C328        C  0.36516921  0.43139034  0.80659375    -0.11000
C329        C  0.26591105  0.37850366  0.80972916     0.01800
C330        C  0.23732738  0.36536728  0.81826270    -0.31000
C331        C  0.40535243  0.43829320  0.77725866     0.03200
C332        C  0.43367800  0.45057694  0.76856904    -0.32700
H333        H  0.34393400  0.39385224  0.75614968     0.14300
H334        H  0.28347038  0.36842005  0.76992609     0.14100
H335        H  0.32733783  0.42316791  0.83079173     0.13900
H336        H  0.38782752  0.44894162  0.81690458     0.13000
C337        C  0.06626597  0.41985805  0.78336903     0.19300
C338        C  0.07631212  0.42430477  0.80517287    -0.09800
C339        C  0.09381199  0.40888666  0.81318290    -0.10700
C340        C  0.10138867  0.38894684  0.79944529     0.20900
C341        C  0.09144231  0.38456177  0.77761175    -0.12700
C342        C  0.07391014  0.39997988  0.76959704    -0.11000
C343        C  0.11893256  0.37275128  0.80800276     0.01800
C344        C  0.13309647  0.35986549  0.81687097    -0.31000
C345        C  0.04849411  0.43595905  0.77502014     0.03200
C346        C  0.03431984  0.44935244  0.76679951    -0.32700
H347        H  0.07063435  0.43966654  0.81595864     0.14300
H348        H  0.10140551  0.41246893  0.83008727     0.14100
H349        H  0.09712346  0.36918778  0.76683748     0.13900
H350        H  0.06626619  0.39635905  0.75270360     0.13000
C351        C  0.06962806  0.12094214  0.78505997     0.19300
C352        C  0.07508544  0.12678244  0.80740284    -0.09800
C353        C  0.09139095  0.16195332  0.81579987    -0.10700
C354        C  0.10233597  0.19141082  0.80189593     0.20900
C355        C  0.09694960  0.18555912  0.77956197    -0.12700
C356        C  0.08054654  0.15040228  0.77118814    -0.11000
C357        C  0.11886667  0.22749489  0.81062924     0.01800
C358        C  0.13247956  0.25692614  0.81903770    -0.31000
C359        C  0.05258893  0.08486342  0.77621092     0.03200
C360        C  0.03836783  0.05575260  0.76730552    -0.32700
H361        H  0.06668969  0.10421855  0.81829533     0.14300
H362        H  0.09546026  0.16619252  0.83310024     0.14100
H363        H  0.10523037  0.20808515  0.76865896     0.13900
H364        H  0.07612696  0.14613358  0.75392844     0.13000
C365        C  0.09502360  0.20701222  0.59160358     0.19300
C366        C  0.09025886  0.21595459  0.57072763    -0.09800
C367        C  0.07355167  0.18903674  0.55481477    -0.10700
C368        C  0.06151929  0.15311462  0.55977654     0.20900
C369        C  0.06595298  0.14412448  0.58072278    -0.12700
C370        C  0.08265437  0.17102670  0.59662537    -0.11000
C371        C  0.04627252  0.12563297  0.54326717     0.01800
C372        C  0.03544033  0.10084302  0.53071400    -0.31000
C373        C  0.11314077  0.23496529  0.60768453     0.03200
C374        C  0.12867093  0.25975311  0.62030917    -0.32700
H375        H  0.09978676  0.24376224  0.56671136     0.14300
H376        H  0.07044194  0.19628446  0.53863693     0.14100
H377        H  0.05691227  0.11642547  0.58466857     0.13900
H378        H  0.08623136  0.16387058  0.61272084     0.13000
C379        C  0.28832368  0.39270248  0.59333842     0.19300
C380        C  0.28009083  0.39527668  0.57187280    -0.09800
C381        C  0.30611308  0.40820133  0.55584979    -0.10700
C382        C  0.34054148  0.41863032  0.56118509     0.20900
C383        C  0.34892739  0.41625483  0.58268961    -0.12700
C384        C  0.32281511  0.40328615  0.59876962    -0.11000
C385        C  0.36681109  0.43117713  0.54439086     0.01800
C386        C  0.38722905  0.44087146  0.52944740    -0.31000
C387        C  0.26093996  0.37858159  0.60950136     0.03200
C388        C  0.23601634  0.36578281  0.62166616    -0.32700
H389        H  0.25348848  0.38709750  0.56750707     0.14300
H390        H  0.29934171  0.40987664  0.53927958     0.14100
H391        H  0.37548254  0.42420819  0.58697635     0.13900
H392        H  0.32941941  0.40132926  0.61533313     0.13000
C393        C  0.07567310  0.40437882  0.56222339     0.19300
C394        C  0.11229448  0.41975097  0.56224425    -0.09800
C395        C  0.12704945  0.40887753  0.57767217    -0.10700
C396        C  0.10526873  0.38267727  0.59319391     0.20900
C397        C  0.06861266  0.36713529  0.59310842    -0.12700
C398        C  0.05384495  0.37801053  0.57766618    -0.11000
C399        C  0.12052532  0.37135752  0.60891842     0.01800
C400        C  0.13375040  0.36119894  0.62127005    -0.31000
C401        C  0.06091344  0.41718301  0.54714138     0.03200
C402        C  0.04979003  0.43056975  0.53562509    -0.32700
H403        H  0.12945232  0.44035820  0.55047957     0.14300
H404        H  0.15540915  0.42096810  0.57755105     0.14100
H405        H  0.05152507  0.34676955  0.60500292     0.13900
H406        H  0.02553387  0.36615489  0.57789511     0.13000
C407        C  0.09960909  0.19190757  0.68599360     0.19300
C408        C  0.11642540  0.18550817  0.70261900    -0.09800
C409        C  0.10101312  0.15029623  0.71073118    -0.10700
C410        C  0.06862775  0.12134660  0.70234071     0.20900
C411        C  0.05178821  0.12778190  0.68575527    -0.12700
C412        C  0.06729408  0.16294970  0.67755747    -0.11000
C413        C  0.05222377  0.08532843  0.71119827     0.01800
C414        C  0.03828276  0.05602235  0.71984389    -0.31000
C415        C  0.11601691  0.22782859  0.67701865     0.03200
C416        C  0.12988177  0.25704762  0.66829429    -0.32700
H417        H  0.14150060  0.20764405  0.70919633     0.14300
H418        H  0.11426685  0.14566285  0.72357732     0.14100
H419        H  0.02670499  0.10565463  0.67918536     0.13900
H420        H  0.05416809  0.16754364  0.66460736     0.13000
C421        C  0.36762840  0.42186319  0.70397957     0.19300
C422        C  0.34404356  0.42791528  0.71448584    -0.09800
C423        C  0.30988685  0.41293219  0.70616484    -0.10700
C424        C  0.29921822  0.39194006  0.68725069     0.20900
C425        C  0.32287488  0.38606475  0.67668993    -0.12700
C426        C  0.35696589  0.40092834  0.68505354    -0.11000
C427        C  0.26430610  0.37681278  0.67838180     0.01800
C428        C  0.23602268  0.36401965  0.66954372    -0.31000
C429        C  0.40249380  0.43667685  0.71283087     0.03200
C430        C  0.43100318  0.44895695  0.72124791    -0.32700
H431        H  0.35201959  0.44409696  0.72912777     0.14300
H432        H  0.29187594  0.41774972  0.71443226     0.14100
H433        H  0.31496046  0.37001068  0.66199613     0.13900
H434        H  0.37495284  0.39606244  0.67679901     0.13000
C435        C  0.06454740  0.41932680  0.70271866     0.19300
C436        C  0.09875658  0.43166395  0.71001099    -0.09800
C437        C  0.11596818  0.41583253  0.70218230    -0.10700
C438        C  0.09904477  0.38754610  0.68702989     0.20900
C439        C  0.06471664  0.37499728  0.67986338    -0.12700
C440        C  0.04747855  0.39080343  0.68771955    -0.11000
C441        C  0.11736532  0.37241664  0.67813179     0.01800
C442        C  0.13239686  0.36044144  0.66930612    -0.31000
C443        C  0.04687205  0.43553051  0.71103156     0.03200
C444        C  0.03307754  0.44909172  0.71953238    -0.32700
H445        H  0.11210540  0.45351509  0.72173549     0.14300
H446        H  0.14252738  0.42582773  0.70779686     0.14100
H447        H  0.05142979  0.35323984  0.66807665     0.13900
H448        H  0.02096780  0.38090316  0.68205418     0.13000
C449        C  0.16519694  0.82988358  0.62515947     0.47700
H450        H  0.16544893  0.83158339  0.60718928    -0.01300
C451        C  0.16451688  0.82577932  0.66732987     0.47800
H452        H  0.16417730  0.82392173  0.68527626    -0.01300
C453        C  0.14439673  0.79093846  0.63375305    -0.15000
C454        C  0.20213449  0.84821175  0.63527768    -0.14700
C455        C  0.14829495  0.84734136  0.63624822    -0.15100
C456        C  0.14408721  0.78856439  0.65583524    -0.15100
C457        C  0.20201921  0.84609062  0.65736525    -0.14700
C458        C  0.14783993  0.84541078  0.65835631    -0.15000
C459        C  0.16480474  0.82882469  0.86137904     0.47700
H460        H  0.16403012  0.82877611  0.87937520    -0.01300
C461        C  0.16645032  0.82863459  0.81914147     0.47800
H462        H  0.16712760  0.82848410  0.80116240    -0.01300
C463        C  0.14514107  0.79079254  0.85147553    -0.15000
C464        C  0.14787394  0.84669458  0.85080896    -0.14700
C465        C  0.20233447  0.84852382  0.85198126    -0.15100
C466        C  0.14585889  0.79039724  0.82935472    -0.15100
C467        C  0.14884565  0.84694660  0.82867798    -0.14700
C468        C  0.20337778  0.84842736  0.82985178    -0.15000
C469        C  0.00128384  0.98468540  0.72225278     0.47700
H470        H  0.00133515  0.98476052  0.70426524    -0.01300
C471        C  0.00119112  0.98465544  0.76462216     0.47800
H472        H  0.00113126  0.98467978  0.78261270    -0.01300
C473        C  0.02235578  0.52175645  0.73260587    -0.15000
C474        C  0.46379296  0.96525021  0.73210551    -0.14700
C475        C  0.01805748  0.96605380  0.73241734    -0.15100
C476        C  0.02286851  0.52188325  0.75475129    -0.15100
C477        C  0.46378978  0.96535533  0.75425223    -0.14700
C478        C  0.01801152  0.96610591  0.75456209    -0.15000
C479        C  0.30488340  0.62815350  0.36237235     0.48700
H480        H  0.30446474  0.62707179  0.38036698    -0.01300
C481        C  0.30592916  0.63082228  0.32014337     0.47800
H482        H  0.30641307  0.63202031  0.30217205    -0.01300
C483        C  0.32531477  0.66677858  0.35327033    -0.15000
C484        C  0.32226106  0.61069114  0.35191418    -0.14700
C485        C  0.26803367  0.60906478  0.35207125    -0.15100
C486        C  0.32593498  0.66843687  0.33115195    -0.15100
C487        C  0.32292125  0.61192147  0.32978485    -0.14700
C488        C  0.26830736  0.61041767  0.32996283    -0.15000
C489        C  0.30397234  0.62608902  0.12553515     0.47700
H490        H  0.30410503  0.62534600  0.10754035    -0.01300
C491        C  0.30372283  0.62804598  0.16777100     0.47800
H492        H  0.30361311  0.62893743  0.18574512    -0.01300
C493        C  0.32376922  0.66453119  0.13486332    -0.15000
C494        C  0.26677670  0.60657093  0.13541026    -0.14700
C495        C  0.32138249  0.60879472  0.13618583    -0.15100
C496        C  0.32362807  0.66584020  0.15698074    -0.15100
C497        C  0.26644434  0.60761646  0.15752183    -0.14700
C498        C  0.32122523  0.60949944  0.15832447    -0.15000
C499        C  0.46860043  0.97306532  0.22121210     0.47700
H500        H  0.46838852  0.97291757  0.20322255    -0.01300
C501        C  0.46914130  0.97325880  0.26357468     0.47800
H502        H  0.46933252  0.97324322  0.28156288    -0.01300
C503        C  0.44863844  0.93495002  0.23136271    -0.15000
C504        C  0.00605475  0.99301572  0.23122497    -0.14700
C505        C  0.45151435  0.99125491  0.23139527    -0.15100
C506        C  0.44907255  0.93505424  0.25350611    -0.15100
C507        C  0.00639873  0.99312819  0.25338100    -0.14700
C508        C  0.45174376  0.99134495  0.25353630    -0.15000
O509        O  0.05379708  0.56559107  0.97447710    -0.78600
O510        O  0.47586605  0.90929231  0.01373263    -0.63300
O511        O  0.99960053  0.98644987  0.97503363    -1.09900
C512        C  0.43675208  0.51193055  0.02459492     1.08300
O513        O  0.41972733  0.89152949  0.01440103    -0.76500
O514        O  0.39684506  0.92825681  0.99454403    -0.64100
Ni515      Ni  0.05145790  0.52236172  0.96666892     1.34900
C516        C  0.40612543  0.94746472  0.97756487     0.87000
O517        O  0.00971224  0.92991527  0.97584835    -0.77100
O518        O  0.05142451  0.98014389  0.95772560    -0.87300
C519        C  0.44385855  0.88662259  0.01917079     0.86600
O520        O  0.07370696  0.52554674  0.99353086    -0.65500
O521        O  0.41734302  0.97392995  0.02970854    -0.84800
C522        C  0.06317520  0.50507831  0.00999609     0.87400
C523        C  0.03478242  0.94633188  0.96205218     1.09000
H524        H  0.48252098  0.97823601  0.02434924     0.40800
O525        O  0.46827092  0.96712179  0.01150586    -1.07500
O526        O  0.43612624  0.97726581  0.97516990    -0.64100
Ni527      Ni  0.48310231  0.50999387  0.99274563     1.26300
O528        O  0.03082177  0.97484661  0.01140770    -0.64400
O529        O  0.46207561  0.52814176  0.01094891    -0.76600
C530        C  0.03070493  0.57184197  0.96934878     0.86800
O531        O  0.49835517  0.54980523  0.97359566    -0.63800
Ni532      Ni  0.42047426  0.93419022  0.02128669     1.27400
Ni533      Ni  0.48920090  0.94814125  0.99410066     1.26100
H534        H  0.48625747  0.97604822  0.96199220     0.41300
O535        O  0.41963315  0.89113180  0.47537309    -0.78600
O536        O  0.49636834  0.54778464  0.51264209    -0.63300
O537        O  0.46798123  0.96690418  0.47626963    -1.09900
C538        C  0.03791542  0.95011902  0.52536599     1.08300
O539        O  0.05118847  0.56558444  0.51191761    -0.76500
O540        O  0.07216142  0.52738188  0.49166175    -0.64100
Ni541      Ni  0.41962523  0.93318305  0.46778129     1.34900
C542        C  0.06187880  0.50626285  0.47551090     0.87000
O543        O  0.45989519  0.52532732  0.47547624    -0.77100
O544        O  0.41584761  0.97229896  0.45871517    -0.87300
C545        C  0.02717202  0.57060400  0.51681043     0.86600
O546        O  0.39771321  0.92912008  0.49491003    -0.65500
O547        O  0.05422759  0.98400868  0.52935424    -0.84800
C548        C  0.40780111  0.94989460  0.51121895     0.87400
C549        C  0.43339431  0.50824663  0.46274410     1.09000
H550        H  0.48829140  0.97851172  0.52533808     0.40800
O551        O  0.00150699  0.98895556  0.51207996    -1.07500
O552        O  0.03154711  0.97581196  0.47571348    -0.64100
Ni553      Ni  0.49003567  0.94912321  0.49360293     1.26300
O554        O  0.43787956  0.97988624  0.51263356    -0.64400
O555        O  0.01239026  0.93291284  0.51195355    -0.76600
C556        C  0.44360715  0.88618073  0.47019587     0.86800
O557        O  0.47592109  0.90944479  0.47462437    -0.63800
Ni558      Ni  0.05099170  0.52326296  0.51906504     1.27400
Ni559      Ni  0.48142238  0.50787226  0.49361835     1.26100
H560        H  0.48134422  0.97710719  0.46303942     0.41300
C561        C  0.18410641  0.56288471  0.09298240     0.19300
C562        C  0.18827149  0.54819817  0.07409611    -0.09800
C563        C  0.16297781  0.53543050  0.05759191    -0.10700
C564        C  0.13340190  0.53731321  0.05989088     0.20900
C565        C  0.12907329  0.55177264  0.07885124    -0.12700
C566        C  0.15440480  0.56455282  0.09538678    -0.11000
C567        C  0.10799794  0.52513422  0.04258326     0.01800
C568        C  0.08733043  0.51559806  0.02777771    -0.31000
C569        C  0.21105235  0.57726922  0.10944075     0.03200
C570        C  0.23546931  0.59011348  0.12200134    -0.32700
H571        H  0.21123645  0.54694106  0.07205195     0.14300
H572        H  0.16662852  0.52439325  0.04298359     0.14100
H573        H  0.10632624  0.55342723  0.08076182     0.13900
H574        H  0.15101969  0.57599033  0.10990420     0.13000
C575        C  0.40756127  0.80127229  0.05952594     0.19300
C576        C  0.41842004  0.80983802  0.08115767    -0.09800
C577        C  0.40142027  0.78314133  0.09716043    -0.10700
C578        C  0.37344257  0.74781734  0.09158263     0.20900
C579        C  0.36273502  0.73915131  0.06993366    -0.12700
C580        C  0.37972399  0.76586407  0.05392831    -0.11000
C581        C  0.35596295  0.72030473  0.10797473     0.01800
C582        C  0.34130463  0.69595138  0.12094217    -0.31000
C583        C  0.42317974  0.82952589  0.04346154     0.03200
C584        C  0.43419565  0.85484906  0.03128709    -0.32700
H585        H  0.43966202  0.83724987  0.08568118     0.14300
H586        H  0.40991130  0.79006924  0.11385349     0.14100
H587        H  0.34114970  0.71185449  0.06546783     0.13900
H588        H  0.37086730  0.75906532  0.03728829     0.13000
C589        C  0.36981752  0.57698428  0.09553735     0.19300
C590        C  0.38162077  0.55500987  0.10145662    -0.09800
C591        C  0.39745611  0.54534750  0.08603457    -0.10700
C592        C  0.40162059  0.55763479  0.06462884     0.20900
C593        C  0.39010186  0.57988538  0.05875448    -0.12700
C594        C  0.37426757  0.58956234  0.07418492    -0.11000
C595        C  0.41629541  0.54593636  0.04867094     0.01800
C596        C  0.42688832  0.53266314  0.03658425    -0.31000
C597        C  0.35279367  0.58638989  0.11120237     0.03200
C598        C  0.33834374  0.59544704  0.12335311    -0.32700
H599        H  0.37833152  0.54513520  0.11790604     0.14300
H600        H  0.42385064  0.10805876  0.05132502     0.14100
H601        H  0.39300403  0.58939931  0.04224841     0.13900
H602        H  0.36522698  0.60658005  0.06943594     0.13000
C603        C  0.39990947  0.83632275  0.20131025     0.19300
C604        C  0.41414083  0.83004331  0.18312390    -0.09800
C605        C  0.39839602  0.79467687  0.17519754    -0.10700
C606        C  0.36841878  0.76535799  0.18546291     0.20900
C607        C  0.35400459  0.77165301  0.20356548    -0.12700
C608        C  0.36970886  0.80705598  0.21146145    -0.11000
C609        C  0.35233179  0.72903328  0.17713922     0.01800
C610        C  0.33925544  0.69952563  0.16888753    -0.31000
C611        C  0.41706089  0.87247998  0.21009285     0.03200
C612        C  0.43165140  0.90182446  0.21876231    -0.32700
H613        H  0.43753162  0.85241418  0.17518560     0.14300
H614        H  0.40966348  0.79016856  0.16112258     0.14100
H615        H  0.33076571  0.74924236  0.21159490     0.13900
H616        H  0.35854389  0.81156487  0.22559106     0.13000
C617        C  0.40362053  0.53358182  0.20316407     0.19300
C618        C  0.38322619  0.52045316  0.18421536    -0.09800
C619        C  0.36544718  0.53591844  0.17672052    -0.10700
C620        C  0.36782271  0.56448288  0.18817671     0.20900
C621        C  0.38807116  0.57747800  0.20718039    -0.12700
C622        C  0.40593341  0.56209333  0.21463217    -0.11000
C623        C  0.35046418  0.58112027  0.17993620     0.01800
C624        C  0.33666365  0.59463158  0.17133217    -0.31000
C625        C  0.42155995  0.51745164  0.21122948     0.03200
C626        C  0.43558445  0.00609751  0.21884625    -0.32700
H627        H  0.39572583  0.01210616  0.16994052     0.14300
H628        H  0.35001959  0.52575571  0.16194027     0.14100
H629        H  0.39022903  0.59960294  0.21614539     0.13900
H630        H  0.42152320  0.57239983  0.22934471     0.13000
C631        C  0.10203296  0.53554509  0.20340346     0.19300
C632        C  0.12663816  0.53237284  0.21506307    -0.09800
C633        C  0.16095058  0.54763311  0.20696484    -0.10700
C634        C  0.17081121  0.56607051  0.18712871     0.20900
C635        C  0.14621316  0.56926828  0.17546871    -0.12700
C636        C  0.11191921  0.55408644  0.18360091    -0.11000
C637        C  0.20579049  0.58098270  0.17842383     0.01800
C638        C  0.23417265  0.59313214  0.16986112    -0.31000
C639        C  0.06691057  0.52014622  0.21199908     0.03200
C640        C  0.03792611  0.00798314  0.21843320    -0.32700
H641        H  0.12072924  0.02617729  0.23075401     0.14300
H642        H  0.17968791  0.54490882  0.21609744     0.14100
H643        H  0.15350422  0.58335216  0.16006705     0.13900
H644        H  0.09315574  0.55676497  0.17446417     0.13000
C645        C  0.13267108  0.53989588  0.42602323     0.19300
C646        C  0.12260491  0.53141179  0.40426583    -0.09800
C647        C  0.14859910  0.54433562  0.38813953    -0.10700
C648        C  0.18464658  0.56573188  0.39378287     0.20900
C649        C  0.19462779  0.57411099  0.41552914    -0.12700
C650        C  0.16870648  0.56123000  0.43160875    -0.11000
C651        C  0.21168471  0.57939907  0.37745866     0.01800
C652        C  0.23636178  0.59224675  0.36512491    -0.31000
C653        C  0.10628648  0.52699344  0.44273385     0.03200
C654        C  0.08549347  0.51714030  0.45745814    -0.32700
H655        H  0.09477675  0.51492669  0.39979496     0.14300
H656        H  0.14064168  0.53773946  0.37135195     0.14100
H657        H  0.22244545  0.59064960  0.42004006     0.13900
H658        H  0.17674690  0.56793899  0.44838139     0.13000
C659        C  0.40742503  0.80011814  0.43064411     0.19300
C660        C  0.42510700  0.80561274  0.41097892    -0.09800
C661        C  0.40869967  0.77978414  0.39446428    -0.10700
C662        C  0.37453239  0.74847255  0.39756107     0.20900
C663        C  0.35701720  0.74278510  0.41731449    -0.12700
C664        C  0.37341191  0.76861312  0.43381926    -0.11000
C665        C  0.35758859  0.72184005  0.38065767     0.01800
C666        C  0.34304345  0.69795048  0.36739136    -0.31000
C667        C  0.42272509  0.82830562  0.44670985     0.03200
C668        C  0.43356406  0.85385307  0.45864656    -0.32700
H669        H  0.45124449  0.83012514  0.40828267     0.14300
H670        H  0.42247788  0.78434606  0.37926134     0.14100
H671        H  0.33062397  0.71856866  0.41987719     0.13900
H672        H  0.35935592  0.76434831  0.44887338     0.13000
C673        C  0.36726755  0.57535639  0.39274258     0.19300
C674        C  0.39195604  0.56775330  0.38622197    -0.09800
C675        C  0.40730446  0.55738677  0.40155358    -0.10700
C676        C  0.39806757  0.55466097  0.42345358     0.20900
C677        C  0.37352067  0.56245195  0.42997705    -0.12700
C678        C  0.35818683  0.57282822  0.41465169    -0.11000
C679        C  0.41230693  0.54192444  0.43896416     0.01800
C680        C  0.42280781  0.52836156  0.45084083    -0.31000
C681        C  0.35147011  0.58615298  0.37709201     0.03200
C682        C  0.33811863  0.59637125  0.36489950    -0.32700
H683        H  0.39919702  0.56968435  0.36933027     0.14300
H684        H  0.42606400  0.55114305  0.39631821     0.14100
H685        H  0.36599551  0.56015938  0.44683638     0.13900
H686        H  0.33916598  0.57873019  0.41985800     0.13000
C687        C  0.37424838  0.76757268  0.30162382     0.19300
C688        C  0.38182170  0.79666891  0.31493610    -0.09800
C689        C  0.39727302  0.83147752  0.30618086    -0.10700
C690        C  0.40529408  0.83738789  0.28407103     0.20900
C691        C  0.39799236  0.80835677  0.27077840    -0.12700
C692        C  0.38244559  0.77351207  0.27952171    -0.11000
C693        C  0.42079777  0.87307997  0.27493540     0.01800
C694        C  0.43366655  0.90212911  0.26614978    -0.31000
C695        C  0.35765830  0.73167873  0.31070314     0.03200
C696        C  0.34334026  0.70231354  0.31931593    -0.32700
H697        H  0.37561187  0.79239464  0.33205115     0.14300
H698        H  0.40283957  0.85370551  0.31661356     0.14100
H699        H  0.40424897  0.81265172  0.25367713     0.13900
H700        H  0.37672558  0.75125001  0.26906681     0.13000
C701        C  0.37120721  0.56902926  0.29943064     0.19300
C702        C  0.36105230  0.55138308  0.27932913    -0.09800
C703        C  0.37743447  0.53473324  0.27135726    -0.10700
C704        C  0.40410337  0.53569579  0.28342013     0.20900
C705        C  0.41436856  0.55351297  0.30345647    -0.12700
C706        C  0.39793839  0.57007644  0.31144921    -0.11000
C707        C  0.42113921  0.51877280  0.27510535     0.01800
C708        C  0.43586900  0.00618598  0.26611409    -0.31000
C709        C  0.35362901  0.58513136  0.30813038     0.03200
C710        C  0.33921933  0.59783712  0.31692110    -0.32700
H711        H  0.34035909  0.55028291  0.26991306     0.14300
H712        H  0.36924884  0.52103486  0.25584097     0.14100
H713        H  0.43497911  0.55451910  0.31291016     0.13900
H714        H  0.40594406  0.58353796  0.32704084     0.13000
C715        C  0.17214158  0.56683455  0.30047566     0.19300
C716        C  0.14262459  0.54104312  0.31278511    -0.09800
C717        C  0.10815130  0.52608121  0.30497155    -0.10700
C718        C  0.10295890  0.53691328  0.28482101     0.20900
C719        C  0.13248026  0.56275622  0.27253337    -0.12700
C720        C  0.16695305  0.57765759  0.28032283    -0.11000
C721        C  0.06752574  0.52110106  0.27645825     0.01800
C722        C  0.03868887  0.00821557  0.26590167    -0.31000
C723        C  0.20756252  0.58258611  0.30882395     0.03200
C724        C  0.23617864  0.59547762  0.31731239    -0.32700
H725        H  0.14627236  0.53253406  0.32842280     0.14300
H726        H  0.08233196  0.00232736  0.31263442     0.14100
H727        H  0.12884069  0.57134211  0.25692195     0.13900
H728        H  0.18950007  0.59763029  0.27067102     0.13000
C729        C  0.09745781  0.70775746  0.89481188     0.19300
C730        C  0.10985875  0.71765909  0.91610400    -0.09800
C731        C  0.09453888  0.69176678  0.93263551    -0.10700
C732        C  0.06669527  0.65593509  0.92791811     0.20900
C733        C  0.05416529  0.64609881  0.90663796    -0.12700
C734        C  0.06949881  0.67198900  0.89010180    -0.11000
C735        C  0.05243359  0.62864172  0.94453651     0.01800
C736        C  0.04165228  0.60380907  0.95705753    -0.31000
C737        C  0.11331943  0.73453560  0.87794578     0.03200
C738        C  0.12738109  0.75887086  0.86495670    -0.32700
H739        H  0.13145857  0.74531255  0.91988657     0.14300
H740        H  0.10463045  0.69955384  0.94899595     0.14100
H741        H  0.03285225  0.61835263  0.90280455     0.13900
H742        H  0.05971946  0.66411401  0.87368615     0.13000
C743        C  0.33478718  0.91094205  0.92796152     0.19300
C744        C  0.34037056  0.93402506  0.91067513    -0.09800
C745        C  0.31503967  0.92194253  0.89419053    -0.10700
C746        C  0.28403596  0.88672288  0.89493439     0.20900
C747        C  0.27864806  0.86350434  0.91209579    -0.12700
C748        C  0.30397273  0.87557550  0.92856670    -0.11000
C749        C  0.25714703  0.87468614  0.87855633     0.01800
C750        C  0.23312280  0.86357740  0.86580223    -0.31000
C751        C  0.36024408  0.92380265  0.94530144     0.03200
C752        C  0.38126886  0.93470034  0.96000053    -0.32700
H753        H  0.36409447  0.96143329  0.91006096     0.14300
H754        H  0.31943382  0.94013673  0.88102110     0.14100
H755        H  0.25471429  0.83624572  0.91285897     0.13900
H756        H  0.29936211  0.85750782  0.94186310     0.13000
C757        C  0.06784859  0.89834979  0.92211474     0.19300
C758        C  0.06428864  0.90258373  0.89997208    -0.09800
C759        C  0.07935296  0.89195903  0.88458554    -0.10700
C760        C  0.09808807  0.87710523  0.89129136     0.20900
C761        C  0.10109075  0.87226381  0.91340651    -0.12700
C762        C  0.08605280  0.88290535  0.92878633    -0.11000
C763        C  0.11504747  0.86761344  0.87565189     0.01800
C764        C  0.13004808  0.85908675  0.86360475    -0.31000
C765        C  0.05449412  0.91171447  0.93788212     0.03200
C766        C  0.04471208  0.92575215  0.94996557    -0.32700
H767        H  0.05040217  0.91465462  0.89462848     0.14300
H768        H  0.07686316  0.89581919  0.86753202     0.14100
H769        H  0.11551598  0.86078144  0.91876023     0.13900
H770        H  0.08911675  0.87965094  0.94584386     0.13000
C771        C  0.36794609  0.92042841  0.78415176     0.19300
C772        C  0.33812107  0.89332618  0.77259081    -0.09800
C773        C  0.30394002  0.87867580  0.78076084    -0.10700
C774        C  0.29945180  0.89103810  0.80055067     0.20900
C775        C  0.32929033  0.91800545  0.81214311    -0.12700
C776        C  0.36344265  0.93271738  0.80394552    -0.11000
C777        C  0.26441585  0.87580808  0.80924615     0.01800
C778        C  0.23597277  0.86335560  0.81779485    -0.31000
C779        C  0.40302240  0.93622663  0.77539795     0.03200
C780        C  0.43157101  0.94961109  0.76681792    -0.32700
H781        H  0.34129489  0.88364479  0.75724860     0.14300
H782        H  0.28108889  0.85776878  0.77168208     0.14100
H783        H  0.32613832  0.92766102  0.82750344     0.13900
H784        H  0.38628499  0.95371223  0.81298997     0.13000
C785        C  0.06578477  0.92188373  0.78381081     0.19300
C786        C  0.09696047  0.94284443  0.79600827    -0.09800
C787        C  0.11497546  0.92757792  0.80335950    -0.10700
C788        C  0.10201767  0.89133839  0.79844840     0.20900
C789        C  0.07094066  0.87043874  0.78615801    -0.12700
C790        C  0.05286775  0.88566899  0.77886814    -0.11000
C791        C  0.11965897  0.87519357  0.80692526     0.01800
C792        C  0.13355146  0.86193283  0.81568659    -0.31000
C793        C  0.04778173  0.93782568  0.77563716     0.03200
C794        C  0.03349374  0.95093434  0.76721718    -0.32700
H795        H  0.10732471  0.97093161  0.79981620     0.14300
H796        H  0.13885391  0.94393338  0.81297041     0.14100
H797        H  0.06056787  0.84235111  0.78234961     0.13900
H798        H  0.02895234  0.86929454  0.76929099     0.13000
C799        C  0.06861165  0.62064153  0.78419103     0.19300
C800        C  0.10204905  0.64902344  0.77670034    -0.09800
C801        C  0.11731887  0.68444952  0.78440589    -0.10700
C802        C  0.09920265  0.69170312  0.79961691     0.20900
C803        C  0.06568675  0.66335111  0.80703613    -0.12700
C804        C  0.05039771  0.62792460  0.79930928    -0.11000
C805        C  0.11556448  0.72782938  0.80830867     0.01800
C806        C  0.12943723  0.75714301  0.81694016    -0.31000
C807        C  0.05259289  0.58438557  0.77579502     0.03200
C808        C  0.03909809  0.55499966  0.76731680    -0.32700
H809        H  0.11624958  0.64377624  0.76487407     0.14300
H810        H  0.14329136  0.70610220  0.77861226     0.14100
H811        H  0.05150889  0.66859043  0.81888556     0.13900
H812        H  0.02443977  0.60625786  0.80511510     0.13000
C813        C  0.09518242  0.70970241  0.58896219     0.19300
C814        C  0.11642906  0.70800532  0.57326838    -0.09800
C815        C  0.10076363  0.68195622  0.55683196    -0.10700
C816        C  0.06376012  0.65754752  0.55595839     0.20900
C817        C  0.04244310  0.65949984  0.57150392    -0.12700
C818        C  0.05813439  0.68559960  0.58796222    -0.11000
C819        C  0.04814235  0.62877712  0.54018503     0.01800
C820        C  0.03715119  0.60300135  0.52836491    -0.31000
C821        C  0.11153820  0.73643468  0.60590500     0.03200
C822        C  0.12618193  0.76018506  0.61928100    -0.32700
H823        H  0.14509084  0.72659426  0.57385369     0.14300
H824        H  0.11751682  0.68044818  0.54502727     0.14100
H825        H  0.01382512  0.64051305  0.57110817     0.13900
H826        H  0.04146151  0.68676846  0.59998772     0.13000
C827        C  0.28550492  0.89215341  0.59337385     0.19300
C828        C  0.28130645  0.90572150  0.57399236    -0.09800
C829        C  0.30694271  0.91820190  0.55772022    -0.10700
C830        C  0.33689351  0.91715142  0.56074655     0.20900
C831        C  0.34123338  0.90380158  0.58019293    -0.12700
C832        C  0.31556528  0.89131320  0.59649220    -0.11000
C833        C  0.36275741  0.92920754  0.54372707     0.01800
C834        C  0.38368672  0.93889484  0.52906315    -0.31000
C835        C  0.25824052  0.87794626  0.60961878     0.03200
C836        C  0.23366020  0.86499442  0.62205576    -0.32700
H837        H  0.25806549  0.90632416  0.57138786     0.14300
H838        H  0.30328794  0.92839799  0.54273596     0.14100
H839        H  0.36427097  0.90281123  0.58267746     0.13900
H840        H  0.31897537  0.88073148  0.61139335     0.13000
C841        C  0.07311412  0.90337641  0.56449178     0.19300
C842        C  0.10096203  0.90001428  0.55879718    -0.09800
C843        C  0.11585514  0.88947740  0.57433733    -0.10700
C844        C  0.10302051  0.88237790  0.59562414     0.20900
C845        C  0.07488804  0.88530441  0.60125462    -0.12700
C846        C  0.06000432  0.89585582  0.58571748    -0.11000
C847        C  0.11863366  0.87180888  0.61153285     0.01800
C848        C  0.13214403  0.86179877  0.62373017    -0.31000
C849        C  0.05934506  0.91659796  0.54899675     0.03200
C850        C  0.04887150  0.93034050  0.53726541    -0.32700
H851        H  0.11143443  0.90598547  0.54246684     0.14300
H852        H  0.13752079  0.88713110  0.56981247     0.14100
H853        H  0.06463956  0.87967179  0.61762982     0.13900
H854        H  0.03860714  0.89859242  0.59030689     0.13000
C855        C  0.09726691  0.68901089  0.68450815     0.19300
C856        C  0.09029826  0.68322821  0.70673604    -0.09800
C857        C  0.07508340  0.64843561  0.71543109    -0.10700
C858        C  0.06682504  0.61929269  0.70194620     0.20900
C859        C  0.07374371  0.62505113  0.67971326    -0.12700
C860        C  0.08893189  0.65985039  0.67100986    -0.11000
C861        C  0.05122250  0.58360387  0.71103505     0.01800
C862        C  0.03809494  0.55462936  0.71992287    -0.31000
C863        C  0.11326455  0.72483745  0.67552467     0.03200
C864        C  0.12706701  0.75434824  0.66721375    -0.32700
H865        H  0.09666682  0.70557232  0.71732123     0.14300
H866        H  0.06976895  0.64425204  0.73264273     0.14100
H867        H  0.06743693  0.60270912  0.66914581     0.13900
H868        H  0.09423924  0.66404384  0.65379403     0.13000
C869        C  0.36706214  0.91922570  0.70290632     0.19300
C870        C  0.34212146  0.92135240  0.71493989    -0.09800
C871        C  0.30752003  0.90543405  0.70709743    -0.10700
C872        C  0.29765211  0.88735568  0.68713006     0.20900
C873        C  0.32253951  0.88507265  0.67514405    -0.12700
C874        C  0.35711437  0.90090170  0.68302097    -0.11000
C875        C  0.26247705  0.87214044  0.67852956     0.01800
C876        C  0.23409784  0.86002819  0.66990183    -0.31000
C877        C  0.40265372  0.93566594  0.71113181     0.03200
C878        C  0.43147517  0.94935506  0.71949325    -0.32700
H879        H  0.34947196  0.93543886  0.73033981     0.14300
H880        H  0.28860134  0.90748999  0.71649813     0.14100
H881        H  0.31528728  0.87129622  0.65964143     0.13900
H882        H  0.37608827  0.89899665  0.67357890     0.13000
C883        C  0.06469425  0.91991110  0.70394336     0.19300
C884        C  0.08002796  0.90829427  0.71854846    -0.09800
C885        C  0.09718057  0.89222583  0.71093741    -0.10700
C886        C  0.09919413  0.88780515  0.68864913     0.20900
C887        C  0.08385433  0.89941863  0.67406627    -0.12700
C888        C  0.06663036  0.91537698  0.68167857    -0.11000
C889        C  0.11720631  0.87179987  0.68049939     0.01800
C890        C  0.13173210  0.85921223  0.67169643    -0.31000
C891        C  0.04725055  0.93664068  0.71187961     0.03200
C892        C  0.03332499  0.95041465  0.71995748    -0.32700
H893        H  0.07887935  0.91183557  0.73578713     0.14300
H894        H  0.10897531  0.88345110  0.72238816     0.14100
H895        H  0.08532955  0.89623933  0.65680186     0.13900
H896        H  0.05495714  0.92427193  0.67021952     0.13000
C897        C  0.66695591  0.33047019  0.62457235     0.47700
H898        H  0.66682749  0.33111456  0.60657499    -0.01300
C899        C  0.66716492  0.32877273  0.66681858     0.47800
H900        H  0.66720110  0.32796512  0.68479601    -0.01300
C901        C  0.64710306  0.29207219  0.63399500    -0.15000
C902        C  0.70413188  0.35010313  0.63448776    -0.14700
C903        C  0.64955295  0.34783081  0.63513501    -0.15100
C904        C  0.64732878  0.29096308  0.65611145    -0.15100
C905        C  0.70448473  0.34935718  0.65660638    -0.14700
C906        C  0.64942490  0.34695875  0.65726713    -0.15000
C907        C  0.66742057  0.33059099  0.86275158     0.47700
H908        H  0.66718737  0.33153522  0.88073803    -0.01300
C909        C  0.66783312  0.32821785  0.82052473     0.47800
H910        H  0.66798510  0.32714319  0.80255729    -0.01300
C911        C  0.64785730  0.29204604  0.85357059    -0.15000
C912        C  0.64977747  0.34747671  0.85186249    -0.14700
C913        C  0.70468219  0.35040005  0.85292696    -0.15100
C914        C  0.64811221  0.29056301  0.83146796    -0.15100
C915        C  0.64995763  0.34648207  0.82973269    -0.14700
C916        C  0.70509028  0.34918049  0.83081774    -0.15000
C917        C  0.50022316  0.48255648  0.72225627     0.47700
H918        H  0.49905303  0.48184921  0.70427974    -0.01300
C919        C  0.50292048  0.48440053  0.76459335     0.47800
H920        H  0.50403539  0.48526559  0.78256780    -0.01300
C921        C  0.52141961  0.02302051  0.73214263    -0.15000
C922        C  0.96454571  0.46453575  0.73294473    -0.14700
C923        C  0.51742915  0.46419628  0.73206532    -0.15100
C924        C  0.52137591  0.02308547  0.75429847    -0.15100
C925        C  0.96505438  0.46457314  0.75509416    -0.14700
C926        C  0.51895536  0.46521047  0.75418957    -0.15000
C927        C  0.80433354  0.12605865  0.36230297     0.48700
H928        H  0.80486844  0.12530206  0.38028879    -0.01300
C929        C  0.80317306  0.12799822  0.32008910     0.47800
H930        H  0.80272800  0.12889612  0.30212302    -0.01300
C931        C  0.82466979  0.16454657  0.35298447    -0.15000
C932        C  0.82080887  0.10804972  0.35131302    -0.14700
C933        C  0.76696152  0.10719696  0.35274778    -0.15100
C934        C  0.82409880  0.16581922  0.33087078    -0.15100
C935        C  0.82026892  0.10888846  0.32918673    -0.14700
C936        C  0.76611253  0.10808799  0.33064392    -0.15000
C937        C  0.80344362  0.12789756  0.12416266     0.47700
H938        H  0.80342584  0.12756387  0.10615935    -0.01300
C939        C  0.80358511  0.12886537  0.16642160     0.47800
H940        H  0.80364736  0.12931585  0.18440704    -0.01300
C941        C  0.82375251  0.16613785  0.13384953    -0.15000
C942        C  0.76636224  0.10843436  0.13417799    -0.14700
C943        C  0.82053275  0.10996150  0.13435874    -0.15100
C944        C  0.82375517  0.16690277  0.15598241    -0.15100
C945        C  0.76624985  0.10893339  0.15629771    -0.14700
C946        C  0.82070230  0.11028855  0.15649961    -0.15000
C947        C  0.96906570  0.47211440  0.22318392     0.47700
H948        H  0.96902025  0.47180720  0.20519560    -0.01300
C949        C  0.96924908  0.47268469  0.26554935     0.47800
H950        H  0.96932002  0.47284118  0.28353684    -0.01300
C951        C  0.94919539  0.43408351  0.23345903    -0.15000
C952        C  0.50634789  0.49189827  0.23352485    -0.14700
C953        C  0.95176918  0.49031224  0.23312831    -0.15100
C954        C  0.94934722  0.43436973  0.25560598    -0.15100
C955        C  0.50589495  0.49195898  0.25567709    -0.14700
C956        C  0.95183671  0.49061033  0.25527723    -0.15000
O957        O  0.54803615  0.06253718  0.97261342    -0.78600
O958        O  0.97539597  0.41059095  0.01321905    -0.63300
O959        O  0.50381772  0.49076001  0.97539824    -1.09900
C960        C  0.93225202  0.00708265  0.02426404     1.08300
O961        O  0.91963722  0.39415171  0.01344178    -0.76500
O962        O  0.90033367  0.43352621  0.99277824    -0.64100
Ni963      Ni  0.54814602  0.02026545  0.96591338     1.34900
C964        C  0.91075616  0.45494098  0.97677065     0.87000
O965        O  0.51141606  0.43244403  0.97544342    -0.77100
O966        O  0.55491600  0.48302139  0.95841767    -0.87300
C967        C  0.94314597  0.38834352  0.01828121     0.86600
O968        O  0.57072800  0.02601352  0.99305194    -0.65500
O969        O  0.91864175  0.47752235  0.02857847    -0.84800
C970        C  0.56133437  0.00574051  0.00955879     0.87400
C971        C  0.53723514  0.44896574  0.96215150     1.09000
H972        H  0.98356378  0.47942272  0.02500064     0.40800
O973        O  0.96999221  0.46974589  0.01178755    -1.07500
O974        O  0.94089981  0.48490882  0.97572870    -0.64100
Ni975      Ni  0.97827253  0.00524590  0.99214435     1.26300
O976        O  0.53256223  0.47573581  0.01166616    -0.64400
O977        O  0.95675190  0.02307814  0.01010476    -0.76600
C978        C  0.52374708  0.06694716  0.96730794     0.86800
O979        O  0.99158002  0.04374860  0.97225278    -0.63800
Ni980      Ni  0.92130205  0.43741348  0.02022319     1.27400
Ni981      Ni  0.99033757  0.45041278  0.99414569     1.26100
H982        H  0.98917891  0.48048728  0.96259597     0.41300
O983        O  0.91999324  0.39132396  0.47372649    -0.78600
O984        O  0.99326064  0.04622151  0.51360153    -0.63300
O985        O  0.96845910  0.46733087  0.47497155    -1.09900
C986        C  0.53801369  0.44906513  0.52368124     1.08300
O987        O  0.54995067  0.06425098  0.51290244    -0.76500
O988        O  0.57184686  0.02644536  0.49332486    -0.64100
Ni989      Ni  0.91978548  0.43353578  0.46693941     1.34900
C990        C  0.56160232  0.00576296  0.47697153     0.87000
O991        O  0.95701676  0.02291731  0.47620751    -0.77100
O992        O  0.91530150  0.47248051  0.45857016    -0.87300
C993        C  0.52611186  0.06912998  0.51851541     0.86600
O994        O  0.89916974  0.42927009  0.49455675    -0.65500
O995        O  0.55493116  0.48299608  0.52762963    -0.84800
C996        C  0.90933033  0.45091820  0.51043447     0.87400
C997        C  0.93203744  0.00586064  0.46240475     1.09000
H998        H  0.98906755  0.47963042  0.52403702     0.40800
O999        O  0.50285958  0.48935430  0.51086676    -1.07500
O1000       O  0.53172128  0.47550212  0.47423462    -0.64100
Ni1001     Ni  0.99049921  0.44966230  0.49240054     1.26300
O1002       O  0.93896419  0.48146085  0.51120585    -0.64400
O1003       O  0.51226990  0.43222065  0.51036343    -0.76600
C1004       C  0.94417507  0.38663266  0.46866118     0.86800
O1005       O  0.97636356  0.40984020  0.47345339    -0.63800
Ni1006     Ni  0.55009773  0.02235428  0.52051269     1.27400
Ni1007     Ni  0.97931536  0.00649861  0.49462757     1.26100
H1008       H  0.98159536  0.47715731  0.46163525     0.41300
C1009       C  0.68352454  0.06579833  0.09195300     0.19300
C1010       C  0.69206242  0.06238747  0.07072269    -0.09800
C1011       C  0.66656769  0.04989432  0.05437614    -0.10700
C1012       C  0.63238141  0.04074045  0.05916429     0.20900
C1013       C  0.62373211  0.04403592  0.08042318    -0.12700
C1014       C  0.64929848  0.05656481  0.09681630    -0.11000
C1015       C  0.60643886  0.02812301  0.04215221     0.01800
C1016       C  0.58562286  0.01778587  0.02737787    -0.31000
C1017       C  0.71036161  0.07952493  0.10845279     0.03200
C1018       C  0.73489285  0.09213054  0.12091624    -0.32700
H1019       H  0.71848524  0.06955812  0.06679362     0.14300
H1020       H  0.67353013  0.04746542  0.03800213     0.14100
H1021       H  0.59735281  0.03703487  0.08428931     0.13900
H1022       H  0.64246986  0.05919926  0.11318362     0.13000
C1023       C  0.90728103  0.30323037  0.05879349     0.19300
C1024       C  0.91143799  0.31331380  0.08064787    -0.09800
C1025       C  0.89528455  0.28667331  0.09672879    -0.10700
C1026       C  0.87486257  0.24985622  0.09099139     0.20900
C1027       C  0.87105501  0.23972514  0.06915876    -0.12700
C1028       C  0.88720186  0.26638501  0.05306625    -0.11000
C1029       C  0.85739000  0.22238652  0.10739860     0.01800
C1030       C  0.84217040  0.19788589  0.12022957    -0.31000
C1031       C  0.92187043  0.33090008  0.04238513     0.03200
C1032       C  0.93263083  0.35610835  0.03015591    -0.32700
H1033       H  0.92671246  0.34176273  0.08522264     0.14300
H1034       H  0.89838069  0.29475453  0.11356587     0.14100
H1035       H  0.85529169  0.21127242  0.06458512     0.13900
H1036       H  0.88361219  0.25831646  0.03621395     0.13000
C1037       C  0.86539757  0.07464716  0.09333534     0.19300
C1038       C  0.88821655  0.09895261  0.07730701    -0.09800
C1039       C  0.90309603  0.08794942  0.06202283    -0.10700
C1040       C  0.89513011  0.05257728  0.06271586     0.20900
C1041       C  0.87224720  0.02829860  0.07872050    -0.12700
C1042       C  0.85741730  0.03929551  0.09399197    -0.11000
C1043       C  0.91046650  0.04087647  0.04729065     0.01800
C1044       C  0.92165991  0.02760260  0.03573024    -0.31000
C1045       C  0.84977974  0.08582748  0.10887042     0.03200
C1046       C  0.83647058  0.09596369  0.12115792    -0.32700
H1047       H  0.89446145  0.12633931  0.07662776     0.14300
H1048       H  0.90332213  0.52613755  0.09053382     0.14100
H1049       H  0.86593313  0.00088482  0.07941099     0.13900
H1050       H  0.83975682  0.02027456  0.10627777     0.13000
C1051       C  0.90249984  0.33565292  0.20324606     0.19300
C1052       C  0.92017213  0.32870949  0.18752122    -0.09800
C1053       C  0.90426842  0.29364031  0.17905726    -0.10700
C1054       C  0.87066050  0.26527333  0.18632661     0.20900
C1055       C  0.85300288  0.27218304  0.20209682    -0.12700
C1056       C  0.86889658  0.30727859  0.21054430    -0.11000
C1057       C  0.85403041  0.22943024  0.17712980     0.01800
C1058       C  0.84027958  0.20029115  0.16828520    -0.31000
C1059       C  0.91914459  0.37160461  0.21227803     0.03200
C1060       C  0.93301404  0.40088228  0.22096336    -0.32700
H1061       H  0.94620760  0.35037104  0.18181743     0.14300
H1062       H  0.91810648  0.28866799  0.16680200     0.14100
H1063       H  0.82697167  0.25051305  0.20780316     0.13900
H1064       H  0.85506419  0.31226817  0.22279531     0.13000
C1065       C  0.90339529  0.03514744  0.20207306     0.19300
C1066       C  0.89124036  0.02873476  0.18064629    -0.09800
C1067       C  0.87373746  0.04419401  0.17267403    -0.10700
C1068       C  0.86819626  0.06603300  0.18610796     0.20900
C1069       C  0.88029130  0.07238387  0.20754542    -0.12700
C1070       C  0.89788104  0.05701252  0.21549182    -0.11000
C1071       C  0.85060240  0.08225674  0.17767983     0.01800
C1072       C  0.83645873  0.09542768  0.16914109    -0.31000
C1073       C  0.92126140  0.01918822  0.21046537     0.03200
C1074       C  0.93600219  0.50518958  0.22040307    -0.32700
H1075       H  0.87779302  0.49607965  0.17751555     0.14300
H1076       H  0.86458867  0.03918891  0.15604197     0.14100
H1077       H  0.87625231  0.08927995  0.21806545     0.13900
H1078       H  0.90726112  0.06224317  0.23206524     0.13000
C1079       C  0.60152133  0.03642977  0.20138457     0.19300
C1080       C  0.62718413  0.03727659  0.21445826    -0.09800
C1081       C  0.66160255  0.05240902  0.20662078    -0.10700
C1082       C  0.67043729  0.06651598  0.18558926     0.20900
C1083       C  0.64473455  0.06553405  0.17246535    -0.12700
C1084       C  0.61035583  0.05058517  0.18035872    -0.11000
C1085       C  0.70559820  0.08150032  0.17723983     0.01800
C1086       C  0.73407911  0.09396905  0.16877065    -0.31000
C1087       C  0.56632296  0.02117082  0.20974984     0.03200
C1088       C  0.53876005  0.50741277  0.22119778    -0.32700
H1089       H  0.61957003  0.51770878  0.23065288     0.14300
H1090       H  0.68119798  0.05290041  0.21688263     0.14100
H1091       H  0.65127523  0.07628111  0.15614453     0.13900
H1092       H  0.59072837  0.05003415  0.17009765     0.13000
C1093       C  0.63194481  0.04096539  0.42703054     0.19300
C1094       C  0.62678457  0.01885163  0.40927709    -0.09800
C1095       C  0.65275862  0.03171792  0.39314818    -0.10700
C1096       C  0.68392927  0.06671165  0.39475477     0.20900
C1097       C  0.68885559  0.08894654  0.41236823    -0.12700
C1098       C  0.66291553  0.07610935  0.42846351    -0.11000
C1099       C  0.71146477  0.07956591  0.37879732     0.01800
C1100       C  0.73597715  0.09144920  0.36638638    -0.31000
C1101       C  0.60602770  0.02746925  0.44408839     0.03200
C1102       C  0.58534851  0.01706329  0.45892805    -0.32700
H1103       H  0.60292999  0.99161466  0.40803255     0.14300
H1104       H  0.64874073  0.01430636  0.37959677     0.14100
H1105       H  0.71290927  0.11602049  0.41377770     0.13900
H1106       H  0.66717612  0.09340633  0.44213331     0.13000
C1107       C  0.90908914  0.30085247  0.42873288     0.19300
C1108       C  0.92130697  0.30929061  0.40732955    -0.09800
C1109       C  0.90483239  0.28269340  0.39121258    -0.10700
C1110       C  0.87603513  0.24758101  0.39644416     0.20900
C1111       C  0.86410293  0.23900302  0.41789222    -0.12700
C1112       C  0.88055522  0.26560908  0.43400424    -0.11000
C1113       C  0.85860299  0.22028522  0.37988973     0.01800
C1114       C  0.84339322  0.19600078  0.36688777    -0.31000
C1115       C  0.92393245  0.32913669  0.44479828     0.03200
C1116       C  0.93446098  0.35454221  0.45685456    -0.32700
H1117       H  0.94311363  0.33657478  0.40304175     0.14300
H1118       H  0.91426030  0.28958613  0.37467993     0.14100
H1119       H  0.84186369  0.21189178  0.42209969     0.13900
H1120       H  0.87065581  0.25889674  0.45045018     0.13000
C1121       C  0.86720979  0.07333968  0.39140344     0.19300
C1122       C  0.88665063  0.05930830  0.38464319    -0.09800
C1123       C  0.90172964  0.04864736  0.39999852    -0.10700
C1124       C  0.89748176  0.05204915  0.42215185     0.20900
C1125       C  0.87829796  0.06637010  0.42888760    -0.12700
C1126       C  0.86322908  0.07702489  0.41354378    -0.11000
C1127       C  0.91137348  0.03920745  0.43786841     0.01800
C1128       C  0.92163552  0.02573897  0.45003159    -0.31000
C1129       C  0.85119431  0.08394412  0.37577297     0.03200
C1130       C  0.83734922  0.09393178  0.36381581    -0.32700
H1131       H  0.88992922  0.05639473  0.36756510     0.14300
H1132       H  0.91635570  0.03740756  0.39461633     0.14100
H1133       H  0.87467758  0.06892782  0.44595859     0.13900
H1134       H  0.84827239  0.08789292  0.41893245     0.13000
C1135       C  0.87257970  0.26534898  0.30187816     0.19300
C1136       C  0.88174539  0.29426166  0.31583980    -0.09800
C1137       C  0.89769092  0.32950753  0.30765629    -0.10700
C1138       C  0.90460603  0.33604849  0.28546277     0.20900
C1139       C  0.89566491  0.30718015  0.27150788    -0.12700
C1140       C  0.87965873  0.27190748  0.27968631    -0.11000
C1141       C  0.92063373  0.37220433  0.27689349     0.01800
C1142       C  0.93382465  0.40148386  0.26832716    -0.31000
C1143       C  0.85560944  0.22905847  0.31043656     0.03200
C1144       C  0.84122461  0.19955157  0.31888636    -0.32700
H1145       H  0.87642691  0.28951773  0.33303226     0.14300
H1146       H  0.90450596  0.35158447  0.31860002     0.14100
H1147       H  0.90097273  0.31193186  0.25432124     0.13900
H1148       H  0.87271008  0.24980361  0.26872863     0.13000
C1149       C  0.86876364  0.06701584  0.29811167     0.19300
C1150       C  0.85413758  0.04204159  0.28099375    -0.09800
C1151       C  0.87156714  0.02632708  0.27331161    -0.10700
C1152       C  0.90370404  0.03551837  0.28269331     0.20900
C1153       C  0.91842495  0.06066936  0.29970348    -0.12700
C1154       C  0.90096450  0.07630717  0.30741814    -0.11000
C1155       C  0.92178392  0.01962859  0.27454595     0.01800
C1156       C  0.93619094  0.50591665  0.26770001    -0.31000
C1157       C  0.85031936  0.08218149  0.30678213     0.03200
C1158       C  0.83586885  0.09460875  0.31583804    -0.32700
H1159       H  0.82921443  0.03454827  0.27371036     0.14300
H1160       H  0.86002536  0.00705395  0.26006240     0.14100
H1161       H  0.94329783  0.06809510  0.30703055     0.13900
H1162       H  0.91242962  0.09543780  0.32073982     0.13000
C1163       C  0.66995186  0.06491302  0.30097335     0.19300
C1164       C  0.63970902  0.03774807  0.31221069    -0.09800
C1165       C  0.60575807  0.02333474  0.30364680    -0.10700
C1166       C  0.60182789  0.03614420  0.28385102     0.20900
C1167       C  0.63207173  0.06344213  0.27269225    -0.12700
C1168       C  0.66600947  0.07769586  0.28118245    -0.11000
C1169       C  0.56696336  0.02094562  0.27471840     0.01800
C1170       C  0.53793260  0.50738324  0.26856233    -0.31000
C1171       C  0.70487424  0.08014455  0.30999912     0.03200
C1172       C  0.73344119  0.09296728  0.31853827    -0.32700
H1173       H  0.64238018  0.02774674  0.32758137     0.14300
H1174       H  0.58524865  0.50609003  0.31528619     0.14100
H1175       H  0.62941658  0.07370886  0.25742884     0.13900
H1176       H  0.68912677  0.09877410  0.27237618     0.13000
C1177       C  0.59490256  0.20711607  0.89569005     0.19300
C1178       C  0.58367523  0.17153418  0.89042547    -0.09800
C1179       C  0.56623243  0.14395779  0.90587534    -0.10700
C1180       C  0.55993361  0.15184231  0.92664350     0.20900
C1181       C  0.57081303  0.18735597  0.93185626    -0.12700
C1182       C  0.58824287  0.21495924  0.91637664    -0.11000
C1183       C  0.54417130  0.12370963  0.94277235     0.01800
C1184       C  0.53328482  0.09853807  0.95504524    -0.31000
C1185       C  0.61366668  0.23570098  0.88001545     0.03200
C1186       C  0.62945457  0.26060216  0.86747335    -0.32700
H1187       H  0.58873579  0.16520374  0.87450101     0.14300
H1188       H  0.55813007  0.11660725  0.90173912     0.14100
H1189       H  0.56628338  0.19377312  0.94791053     0.13900
H1190       H  0.59685503  0.24243667  0.92059091     0.13000
C1191       C  0.84071557  0.42189155  0.92680051     0.19300
C1192       C  0.82312914  0.38565706  0.92000736    -0.09800
C1193       C  0.79724273  0.37242428  0.90383871    -0.10700
C1194       C  0.78884934  0.39537553  0.89438511     0.20900
C1195       C  0.80664956  0.43172233  0.90102860    -0.12700
C1196       C  0.83256935  0.44497336  0.91721790    -0.11000
C1197       C  0.76088705  0.38107446  0.87859704     0.01800
C1198       C  0.73605243  0.36774100  0.86632862    -0.31000
C1199       C  0.86637687  0.43494296  0.94398887     0.03200
C1200       C  0.88703477  0.44464504  0.95879809    -0.32700
H1201       H  0.82916154  0.36756563  0.92736436     0.14300
H1202       H  0.78348337  0.34422409  0.89889787     0.14100
H1203       H  0.80019810  0.44962981  0.89389588     0.13900
H1204       H  0.84595138  0.47301468  0.92240978     0.13000
C1205       C  0.57161981  0.40275902  0.92196110     0.19300
C1206       C  0.58592261  0.42241221  0.90268898    -0.09800
C1207       C  0.60100304  0.41158373  0.88747943    -0.10700
C1208       C  0.60185639  0.38105544  0.89148905     0.20900
C1209       C  0.58724100  0.36116841  0.91065220    -0.12700
C1210       C  0.57214342  0.37199915  0.92586897    -0.11000
C1211       C  0.61850204  0.37059824  0.87627720     0.01800
C1212       C  0.63280926  0.36099577  0.86445254    -0.31000
C1213       C  0.55732389  0.41495493  0.93781751     0.03200
C1214       C  0.54700736  0.42836356  0.94998359    -0.32700
H1215       H  0.58570614  0.44628926  0.89952281     0.14300
H1216       H  0.61226405  0.42716447  0.87273152     0.14100
H1217       H  0.58783745  0.33753823  0.91391206     0.13900
H1218       H  0.56122832  0.35665412  0.94071971     0.13000
C1219       C  0.86979501  0.42243838  0.78512296     0.19300
C1220       C  0.84000157  0.39966255  0.77211934    -0.09800
C1221       C  0.80578821  0.38521681  0.78015123    -0.10700
C1222       C  0.80119667  0.39342280  0.80125926     0.20900
C1223       C  0.83099807  0.41623535  0.81425395    -0.12700
C1224       C  0.86521679  0.43076512  0.80619511    -0.11000
C1225       C  0.76604025  0.37782315  0.80988180     0.01800
C1226       C  0.73751708  0.36473720  0.81847001    -0.31000
C1227       C  0.90491945  0.43753949  0.77662181     0.03200
C1228       C  0.93326863  0.44996765  0.76795946    -0.32700
H1229       H  0.84323094  0.39300721  0.75580736     0.14300
H1230       H  0.78297864  0.36753493  0.76997317     0.14100
H1231       H  0.82776010  0.42265957  0.83063097     0.13900
H1232       H  0.88803541  0.44839593  0.81637837     0.13000
C1233       C  0.56771071  0.42119835  0.78281213     0.19300
C1234       C  0.56889914  0.39534331  0.77049971    -0.09800
C1235       C  0.58638390  0.37983972  0.77850493    -0.10700
C1236       C  0.60285640  0.39017982  0.79884441     0.20900
C1237       C  0.60182763  0.41617216  0.81107928    -0.12700
C1238       C  0.58435499  0.43165403  0.80308461    -0.11000
C1239       C  0.62015110  0.37373782  0.80752669     0.01800
C1240       C  0.63415009  0.36072001  0.81649395    -0.31000
C1241       C  0.54970630  0.43715851  0.77453133     0.03200
C1242       C  0.53513717  0.45026002  0.76642616    -0.32700
H1243       H  0.55626164  0.38713441  0.75475531     0.14300
H1244       H  0.58692839  0.35974483  0.76890138     0.14100
H1245       H  0.61437003  0.42431754  0.82685322     0.13900
H1246       H  0.58373313  0.45166480  0.81272781     0.13000
C1247       C  0.56961721  0.12114744  0.78503802     0.19300
C1248       C  0.57328834  0.12638336  0.80749165    -0.09800
C1249       C  0.58933270  0.16139033  0.81611193    -0.10700
C1250       C  0.60180669  0.19130774  0.80232768     0.20900
C1251       C  0.59825413  0.18606246  0.77988409    -0.12700
C1252       C  0.58214416  0.15107661  0.77127865    -0.11000
C1253       C  0.61816758  0.22727309  0.81126123     0.01800
C1254       C  0.63182061  0.25674265  0.81965185    -0.31000
C1255       C  0.55257610  0.08518876  0.77597057     0.03200
C1256       C  0.53824811  0.05611400  0.76699295    -0.32700
H1257       H  0.56364292  0.10346306  0.81830051     0.14300
H1258       H  0.59195971  0.16513532  0.83349210     0.14100
H1259       H  0.60776940  0.20894475  0.76906255     0.13900
H1260       H  0.57921644  0.14731683  0.75391583     0.13000
C1261       C  0.59564938  0.20743375  0.59163243     0.19300
C1262       C  0.58574727  0.21462233  0.57181014    -0.09800
C1263       C  0.56936492  0.18757135  0.55594067    -0.10700
C1264       C  0.56282805  0.15327337  0.55988949     0.20900
C1265       C  0.57246805  0.14602512  0.57978736    -0.12700
C1266       C  0.58883079  0.17304698  0.59564069    -0.11000
C1267       C  0.54741348  0.12568681  0.54342716     0.01800
C1268       C  0.53632794  0.10079142  0.53091487    -0.31000
C1269       C  0.61346677  0.23562297  0.60761926     0.03200
C1270       C  0.62880550  0.26044560  0.62024579    -0.32700
H1271       H  0.59099007  0.24119723  0.56856577     0.14300
H1272       H  0.56214701  0.19348031  0.54058003     0.14100
H1273       H  0.56764162  0.11960232  0.58295315     0.13900
H1274       H  0.59642690  0.16725359  0.61090397     0.13000
C1275       C  0.78703633  0.39291083  0.59235939     0.19300
C1276       C  0.77939631  0.39801166  0.57125214    -0.09800
C1277       C  0.80527578  0.41077915  0.55514156    -0.10700
C1278       C  0.83890895  0.41848276  0.56006234     0.20900
C1279       C  0.84665222  0.41352852  0.58119953    -0.12700
C1280       C  0.82071734  0.40073835  0.59734853    -0.11000
C1281       C  0.86506484  0.43079429  0.54324809     0.01800
C1282       C  0.88580462  0.44034225  0.52851452    -0.31000
C1283       C  0.75991003  0.37901516  0.60864426     0.03200
C1284       C  0.73542896  0.36645244  0.62111524    -0.32700
H1285       H  0.75338606  0.39193365  0.56723532     0.14300
H1286       H  0.79900888  0.41443703  0.53883755     0.14100
H1287       H  0.87257838  0.41933679  0.58514216     0.13900
H1288       H  0.82682428  0.39678499  0.61362786     0.13000
C1289       C  0.57417731  0.40364197  0.56311026     0.19300
C1290       C  0.60600460  0.40680851  0.55863621    -0.09800
C1291       C  0.62116298  0.39660540  0.57420019    -0.10700
C1292       C  0.60463379  0.38331834  0.59433180     0.20900
C1293       C  0.57281826  0.38017175  0.59882997    -0.12700
C1294       C  0.55764514  0.39037207  0.58325297    -0.11000
C1295       C  0.62002009  0.37219664  0.61008736     0.01800
C1296       C  0.63331688  0.36187410  0.62225383    -0.31000
C1297       C  0.55951435  0.41583142  0.54752176     0.03200
C1298       C  0.54862722  0.42897297  0.53559655    -0.32700
H1299       H  0.61918156  0.41735264  0.54319754     0.14300
H1300       H  0.64573939  0.39906836  0.57054837     0.14100
H1301       H  0.55979700  0.36987347  0.61433336     0.13900
H1302       H  0.53319681  0.38814240  0.58695187     0.13000
C1303       C  0.60096609  0.19197041  0.68542077     0.19300
C1304       C  0.61807729  0.18501185  0.70155507    -0.09800
C1305       C  0.60223882  0.14973716  0.70966665    -0.10700
C1306       C  0.56917999  0.12127694  0.70173074     0.20900
C1307       C  0.55212133  0.12824033  0.68556761    -0.12700
C1308       C  0.56802088  0.16347757  0.67739356    -0.11000
C1309       C  0.55230289  0.08527912  0.71069969     0.01800
C1310       C  0.53811784  0.05606076  0.71948144    -0.31000
C1311       C  0.61747796  0.22804813  0.67667191     0.03200
C1312       C  0.63109632  0.25740134  0.66815787    -0.32700
H1313       H  0.64362225  0.20678802  0.70782029     0.14300
H1314       H  0.61564066  0.14469510  0.72220429     0.14100
H1315       H  0.52651871  0.10649567  0.67935527     0.13900
H1316       H  0.55464631  0.16851125  0.66483193     0.13000
C1317       C  0.86904458  0.42324911  0.70303019     0.19300
C1318       C  0.84520911  0.42871247  0.71375282    -0.09800
C1319       C  0.81100902  0.41365150  0.70545947    -0.10700
C1320       C  0.80048832  0.39311846  0.68635945     0.20900
C1321       C  0.82440449  0.38785046  0.67557204    -0.12700
C1322       C  0.85855803  0.40281688  0.68390057    -0.11000
C1323       C  0.76541190  0.37774530  0.67760360     0.01800
C1324       C  0.73689236  0.36478983  0.66900087    -0.31000
C1325       C  0.90390471  0.43800233  0.71193971     0.03200
C1326       C  0.93225251  0.45010131  0.72056880    -0.32700
H1327       H  0.85300604  0.44445244  0.72856655     0.14300
H1328       H  0.79281885  0.41799900  0.71392123     0.14100
H1329       H  0.81662928  0.37214782  0.66074332     0.13900
H1330       H  0.87670915  0.39836892  0.67547727     0.13000
C1331       C  0.56289279  0.41814145  0.70218042     0.19300
C1332       C  0.54681971  0.38048637  0.70347927    -0.09800
C1333       C  0.56485030  0.36528133  0.69601641    -0.10700
C1334       C  0.59908852  0.38770193  0.68731634     0.20900
C1335       C  0.61511288  0.42532207  0.68604061    -0.12700
C1336       C  0.59710353  0.44050209  0.69348702    -0.11000
C1337       C  0.61735732  0.37220851  0.67889022     0.01800
C1338       C  0.63253971  0.36028862  0.67019737    -0.31000
C1339       C  0.54505550  0.43408781  0.71061360     0.03200
C1340       C  0.53157801  0.44790013  0.71920222    -0.32700
H1341       H  0.52048546  0.36295806  0.71033797     0.14300
H1342       H  0.55210842  0.33613019  0.69698059     0.14100
H1343       H  0.64147816  0.44289463  0.67923049     0.13900
H1344       H  0.60989524  0.46966288  0.69254231     0.13000
C1345       C  0.66514215  0.83032130  0.62563953     0.47700
H1346       H  0.66529362  0.83203867  0.60767308    -0.01300
C1347       C  0.66463889  0.82608923  0.66780373     0.47800
H1348       H  0.66437043  0.82417971  0.68574603    -0.01300
C1349       C  0.64401785  0.79134783  0.63423469    -0.15000
C1350       C  0.70210958  0.84822730  0.63564923    -0.14700
C1351       C  0.64871683  0.84818970  0.63684450    -0.15100
C1352       C  0.64378184  0.78890744  0.65630404    -0.15100
C1353       C  0.70207811  0.84605155  0.65773949    -0.14700
C1354       C  0.64828124  0.84609232  0.65894700    -0.15000
C1355       C  0.66497345  0.82850252  0.86103295     0.47700
H1356       H  0.66427897  0.82818039  0.87903265    -0.01300
C1357       C  0.66644796  0.82897840  0.81878252     0.47800
H1358       H  0.66706425  0.82911654  0.80079938    -0.01300
C1359       C  0.64528771  0.79062592  0.85090370    -0.15000
C1360       C  0.64803104  0.84656066  0.85074511    -0.14700
C1361       C  0.70244741  0.84832124  0.85156288    -0.15100
C1362       C  0.64591814  0.79058798  0.82876953    -0.15100
C1363       C  0.64887755  0.84713926  0.82861639    -0.14700
C1364       C  0.70340367  0.84854270  0.82943386    -0.15000
C1365       C  0.50108769  0.98476793  0.72206553     0.47700
H1366       H  0.50114351  0.98473360  0.70407743    -0.01300
C1367       C  0.50099174  0.98497340  0.76443355     0.47800
H1368       H  0.50092472  0.98509107  0.78242304    -0.01300
C1369       C  0.52134786  0.52113068  0.73176565    -0.15000
C1370       C  0.96398516  0.96521430  0.73231372    -0.14700
C1371       C  0.51793445  0.96628023  0.73231722    -0.15100
C1372       C  0.52273306  0.52214146  0.75389733    -0.15100
C1373       C  0.96401442  0.96524114  0.75446393    -0.14700
C1374       C  0.51796353  0.96650912  0.75446233    -0.15000
C1375       C  0.80427774  0.62840908  0.36225277     0.48700
H1376       H  0.80365827  0.62738684  0.38024906    -0.01300
C1377       C  0.80575795  0.63087190  0.32001417     0.47800
H1378       H  0.80642790  0.63199433  0.30204131    -0.01300
C1379       C  0.82441944  0.66698257  0.35309676    -0.15000
C1380       C  0.82212660  0.61128065  0.35201233    -0.14700
C1381       C  0.76752998  0.60889292  0.35178801    -0.15100
C1382       C  0.82529690  0.66852261  0.33097189    -0.15100
C1383       C  0.82302572  0.61238687  0.32988488    -0.14700
C1384       C  0.76800226  0.61015143  0.32967911    -0.15000
C1385       C  0.80403331  0.62682279  0.12579203     0.47700
H1386       H  0.80420387  0.62626809  0.10779345    -0.01300
C1387       C  0.80369854  0.62831827  0.16803457     0.47800
H1388       H  0.80355170  0.62902114  0.18601338    -0.01300
C1389       C  0.82400052  0.66516487  0.13527767    -0.15000
C1390       C  0.76683921  0.60737373  0.13563689    -0.14700
C1391       C  0.82120410  0.60920058  0.13632749    -0.15100
C1392       C  0.82379838  0.66620596  0.15739809    -0.15100
C1393       C  0.76646591  0.60817533  0.15775087    -0.14700
C1394       C  0.82106173  0.60972464  0.15847321    -0.15000
C1395       C  0.96868766  0.97326135  0.22128138     0.47700
H1396       H  0.96844713  0.97309924  0.20329140    -0.01300
C1397       C  0.96927606  0.97345338  0.26364428     0.47800
H1398       H  0.96950015  0.97343304  0.28163247    -0.01300
C1399       C  0.94868963  0.93517588  0.23143214    -0.15000
C1400       C  0.50597613  0.99295322  0.23118250    -0.14700
C1401       C  0.95169090  0.99152106  0.23149302    -0.15100
C1402       C  0.94910863  0.93526015  0.25357150    -0.15100
C1403       C  0.50630173  0.99304642  0.25334127    -0.14700
C1404       C  0.95197005  0.99163730  0.25363663    -0.15000
O1405       O  0.55406231  0.56621180  0.97418667    -0.78600
O1406       O  0.97495156  0.90883915  0.01374466    -0.63300
O1407       O  0.50006900  0.98684086  0.97502015    -1.09900
C1408       C  0.93626993  0.51158669  0.02490493     1.08300
O1409       O  0.91880374  0.89109536  0.01430338    -0.76500
O1410       O  0.89635246  0.92804679  0.99416188    -0.64100
Ni1411     Ni  0.55251225  0.52315033  0.96706590     1.34900
C1412       C  0.90579305  0.94748041  0.97727285     0.87000
O1413       O  0.51039630  0.93047498  0.97569723    -0.77100
O1414       O  0.55195502  0.98085292  0.95760391    -0.87300
C1415       C  0.94290479  0.88612628  0.01905768     0.86600
O1416       O  0.57356442  0.52668128  0.99443651    -0.65500
O1417       O  0.91643288  0.97364062  0.02931376    -0.84800
C1418       C  0.56289899  0.50546471  0.01055026     0.87400
C1419       C  0.53539953  0.94702297  0.96186568     1.09000
H1420       H  0.98164271  0.97776704  0.02433292     0.40800
O1421       O  0.96751806  0.96675245  0.01143515    -1.07500
O1422       O  0.93580942  0.97731017  0.97502126    -0.64100
Ni1423     Ni  0.98297430  0.50994095  0.99338160     1.26300
O1424       O  0.53168531  0.97539274  0.01125157    -0.64400
O1425       O  0.96246105  0.52823820  0.01188510    -0.76600
C1426       C  0.53074419  0.57201917  0.96881717     0.86800
O1427       O  0.99836860  0.55000085  0.97439230    -0.63800
Ni1428     Ni  0.91960144  0.93386009  0.02103361     1.27400
Ni1429     Ni  0.98848492  0.94770203  0.99412716     1.26100
H1430       H  0.98583277  0.97570386  0.96198641     0.41300
O1431       O  0.91966741  0.89115049  0.47567762    -0.78600
O1432       O  0.99494825  0.54747949  0.51205209    -0.63300
O1433       O  0.96786619  0.96685596  0.47624550    -1.09900
C1434       C  0.53766129  0.94946129  0.52536792     1.08300
O1435       O  0.55234544  0.56516038  0.51196186    -0.76500
O1436       O  0.57253855  0.52638583  0.49159018    -0.64100
Ni1437     Ni  0.91955526  0.93299587  0.46774372     1.34900
C1438       C  0.56184238  0.50542546  0.47535140     0.87000
O1439       O  0.95859435  0.52405249  0.47486146    -0.77100
O1440       O  0.91581964  0.97198947  0.45836935    -0.87300
C1441       C  0.52870991  0.57050421  0.51729147     0.86600
O1442       O  0.89741667  0.92915383  0.49476389    -0.65500
O1443       O  0.55398015  0.98329984  0.52949811    -0.84800
C1444       C  0.90746872  0.94991025  0.51108212     0.87400
C1445       C  0.93227013  0.50656909  0.46203023     1.09000
H1446       H  0.98819320  0.97886093  0.52533361     0.40800
O1447       O  0.50165057  0.98869156  0.51210571    -1.07500
O1448       O  0.53158807  0.97572217  0.47562900    -0.64100
Ni1449     Ni  0.98998342  0.94927968  0.49368460     1.26300
O1450       O  0.93758565  0.97985749  0.51251568    -0.64400
O1451       O  0.51234674  0.93248829  0.51178867    -0.76600
C1452       C  0.94358865  0.88619456  0.47038264     0.86800
O1453       O  0.97591831  0.90945189  0.47480317    -0.63800
Ni1454     Ni  0.55157999  0.52252106  0.51903838     1.27400
Ni1455     Ni  0.98058836  0.50740988  0.49324677     1.26100
H1456       H  0.98124930  0.97702015  0.46301917     0.41300
C1457       C  0.68389208  0.56336244  0.09339874     0.19300
C1458       C  0.68788168  0.54861921  0.07447828    -0.09800
C1459       C  0.66231370  0.53559374  0.05812925    -0.10700
C1460       C  0.63264965  0.53727808  0.06062495     0.20900
C1461       C  0.62847985  0.55175200  0.07962895    -0.12700
C1462       C  0.65408222  0.56478664  0.09600794    -0.11000
C1463       C  0.60710306  0.52507703  0.04341449     0.01800
C1464       C  0.58655602  0.51569228  0.02856262    -0.31000
C1465       C  0.71107547  0.57800447  0.10970592     0.03200
C1466       C  0.73555989  0.59096862  0.12221581    -0.32700
H1467       H  0.71092164  0.54753438  0.07228312     0.14300
H1468       H  0.66584233  0.52455996  0.04347514     0.14100
H1469       H  0.60567216  0.55326672  0.08168101     0.13900
H1470       H  0.65082995  0.57625062  0.11056003     0.13000
C1471       C  0.90731720  0.80103765  0.05947270     0.19300
C1472       C  0.91815814  0.81018914  0.08107065    -0.09800
C1473       C  0.90147214  0.78380878  0.09726664    -0.10700
C1474       C  0.87383290  0.74821620  0.09190838     0.20900
C1475       C  0.86320152  0.73895365  0.07028829    -0.12700
C1476       C  0.87987368  0.76534939  0.05409063    -0.11000
C1477       C  0.85653072  0.72103359  0.10848919     0.01800
C1478       C  0.84179613  0.69673423  0.12148360    -0.31000
C1479       C  0.92245953  0.82898898  0.04323389     0.03200
C1480       C  0.93321197  0.85424447  0.03104767    -0.32700
H1481       H  0.93910098  0.83782188  0.08541893     0.14300
H1482       H  0.90990507  0.79119634  0.11393546     0.14100
H1483       H  0.84187878  0.71144146  0.06599622     0.13900
H1484       H  0.87103636  0.75809567  0.03747498     0.13000
C1485       C  0.86812541  0.57615522  0.09533234     0.19300
C1486       C  0.87932931  0.55366218  0.10122306    -0.09800
C1487       C  0.89499871  0.54378266  0.08582581    -0.10700
C1488       C  0.89960342  0.55637003  0.06446888     0.20900
C1489       C  0.88850036  0.57897783  0.05858413    -0.12700
C1490       C  0.87282055  0.58887296  0.07399696    -0.11000
C1491       C  0.91466554  0.54491315  0.04863460     0.01800
C1492       C  0.92580905  0.53195318  0.03673514    -0.31000
C1493       C  0.85165436  0.58609456  0.11106567     0.03200
C1494       C  0.83773020  0.59554259  0.12336720    -0.32700
H1495       H  0.87582130  0.54366289  0.11765634     0.14300
H1496       H  0.92076190  0.10694713  0.04973519     0.14100
H1497       H  0.89174705  0.58872884  0.04211164     0.13900
H1498       H  0.86421815  0.60627678  0.06927033     0.13000
C1499       C  0.90050934  0.83653205  0.20163982     0.19300
C1500       C  0.91507110  0.83004448  0.18372367    -0.09800
C1501       C  0.89936689  0.79461085  0.17595174    -0.10700
C1502       C  0.86913263  0.76546475  0.18612077     0.20900
C1503       C  0.85445535  0.77195540  0.20399073    -0.12700
C1504       C  0.87009507  0.80742849  0.21171459    -0.11000
C1505       C  0.85289209  0.72915012  0.17781764     0.01800
C1506       C  0.83963331  0.69972080  0.16946104    -0.31000
C1507       C  0.91749444  0.87274848  0.21023294     0.03200
C1508       C  0.93188905  0.90210429  0.21883438    -0.32700
H1509       H  0.93863674  0.85230733  0.17585735     0.14300
H1510       H  0.91081114  0.78992364  0.16204453     0.14100
H1511       H  0.83100222  0.74966262  0.21192765     0.13900
H1512       H  0.85868034  0.81212950  0.22563290     0.13000
C1513       C  0.90372694  0.53437202  0.20381930     0.19300
C1514       C  0.88140754  0.51949226  0.18572652    -0.09800
C1515       C  0.86361132  0.53486095  0.17810730    -0.10700
C1516       C  0.86791395  0.56511879  0.18857340     0.20900
C1517       C  0.89010686  0.57990290  0.20672813    -0.12700
C1518       C  0.90793890  0.56455861  0.21433107    -0.11000
C1519       C  0.85048287  0.58156639  0.18014250     0.01800
C1520       C  0.83657169  0.59487283  0.17142408    -0.31000
C1521       C  0.92164766  0.51827821  0.21199354     0.03200
C1522       C  0.93569677  0.00628497  0.21895509    -0.32700
H1523       H  0.89532008  0.01186804  0.17012669     0.14300
H1524       H  0.84666947  0.52329646  0.16398661     0.14100
H1525       H  0.89375204  0.60334049  0.21492434     0.13900
H1526       H  0.92494679  0.57617262  0.22842088     0.13000
C1527       C  0.60241309  0.53601902  0.20406561     0.19300
C1528       C  0.62693409  0.53237193  0.21545078    -0.09800
C1529       C  0.66116959  0.54763554  0.20723415    -0.10700
C1530       C  0.67101124  0.56653557  0.18755746     0.20900
C1531       C  0.64650426  0.57023131  0.17618326    -0.12700
C1532       C  0.61229362  0.55505226  0.18443608    -0.11000
C1533       C  0.70588190  0.58142623  0.17871980     0.01800
C1534       C  0.73420484  0.59360154  0.17008966    -0.31000
C1535       C  0.56731786  0.52046186  0.21270380     0.03200
C1536       C  0.53792096  0.00830940  0.21840973    -0.32700
H1537       H  0.62052696  0.02609670  0.23066819     0.14300
H1538       H  0.67985290  0.54453754  0.21614049     0.14100
H1539       H  0.65379482  0.58468402  0.16090680     0.13900
H1540       H  0.59357403  0.55807640  0.17551422     0.13000
C1541       C  0.63208582  0.53862408  0.42561841     0.19300
C1542       C  0.62193518  0.53051188  0.40384985    -0.09800
C1543       C  0.64787715  0.54354321  0.38768505    -0.10700
C1544       C  0.68393755  0.56466396  0.39331095     0.20900
C1545       C  0.69399123  0.57261754  0.41506755    -0.12700
C1546       C  0.66813044  0.55963449  0.43118079    -0.11000
C1547       C  0.71094443  0.57858057  0.37696990     0.01800
C1548       C  0.73571473  0.59173031  0.36470483    -0.31000
C1549       C  0.60580879  0.52578127  0.44237911     0.03200
C1550       C  0.58522931  0.51610186  0.45720398    -0.32700
H1551       H  0.59409261  0.51427866  0.39940057     0.14300
H1552       H  0.63987223  0.53728450  0.37088627     0.14100
H1553       H  0.72182259  0.58894347  0.41955959     0.13900
H1554       H  0.67622608  0.56605251  0.44796280     0.13000
C1555       C  0.90661039  0.80057170  0.43035132     0.19300
C1556       C  0.92327178  0.80678515  0.41022284    -0.09800
C1557       C  0.90651360  0.78101438  0.39370431    -0.10700
C1558       C  0.87300037  0.74901357  0.39725126     0.20900
C1559       C  0.85644756  0.74267354  0.41743282    -0.12700
C1560       C  0.87319557  0.76845458  0.43394564    -0.11000
C1561       C  0.85594467  0.72223456  0.38041275     0.01800
C1562       C  0.84164298  0.69824151  0.36718365    -0.31000
C1563       C  0.92230680  0.82855291  0.44656028     0.03200
C1564       C  0.93345073  0.85397673  0.45865071    -0.32700
H1565       H  0.94891282  0.83176416  0.40720162     0.14300
H1566       H  0.91956010  0.78609596  0.37817334     0.14100
H1567       H  0.83057435  0.71792645  0.42035234     0.13900
H1568       H  0.85989681  0.76361955  0.44936450     0.13000
C1569       C  0.86624285  0.57499900  0.39286123     0.19300
C1570       C  0.89164513  0.56843435  0.38630593    -0.09800
C1571       C  0.90655785  0.55732372  0.40145587    -0.10700
C1572       C  0.89616458  0.55281118  0.42320811     0.20900
C1573       C  0.87085493  0.55950686  0.42977692    -0.12700
C1574       C  0.85595206  0.57063419  0.41462676    -0.11000
C1575       C  0.91029352  0.53967258  0.43849340     0.01800
C1576       C  0.92108851  0.52617620  0.45016835    -0.31000
C1577       C  0.85088706  0.58649470  0.37736709     0.03200
C1578       C  0.83783152  0.59701283  0.36516934    -0.32700
H1579       H  0.89979612  0.57176629  0.36952311     0.14300
H1580       H  0.92593894  0.55196229  0.39619253     0.14100
H1581       H  0.86246533  0.55585268  0.44652696     0.13900
H1582       H  0.83634690  0.57570150  0.41985030     0.13000
C1583       C  0.87367519  0.76758953  0.30143822     0.19300
C1584       C  0.88185219  0.79677196  0.31486350    -0.09800
C1585       C  0.89743337  0.83162848  0.30616456    -0.10700
C1586       C  0.90499691  0.83748999  0.28400468     0.20900
C1587       C  0.89712557  0.80837509  0.27060347    -0.12700
C1588       C  0.88141313  0.77347588  0.27928452    -0.11000
C1589       C  0.92065067  0.87323171  0.27493448     0.01800
C1590       C  0.93363075  0.90232308  0.26619511    -0.31000
C1591       C  0.85697864  0.73167289  0.31046884     0.03200
C1592       C  0.84263192  0.70232164  0.31908481    -0.32700
H1593       H  0.87600997  0.79252831  0.33202261     0.14300
H1594       H  0.90346636  0.85393282  0.31668008     0.14100
H1595       H  0.90311082  0.81265866  0.25347420     0.13900
H1596       H  0.87524425  0.75114358  0.26874898     0.13000
C1597       C  0.87176705  0.56936627  0.30016233     0.19300
C1598       C  0.86188706  0.55185823  0.28001594    -0.09800
C1599       C  0.87842053  0.53532551  0.27210518    -0.10700
C1600       C  0.90491634  0.53616944  0.28429638     0.20900
C1601       C  0.91485935  0.55376789  0.30440920    -0.12700
C1602       C  0.89832065  0.57028524  0.31232091    -0.11000
C1603       C  0.92215502  0.51944720  0.27596726     0.01800
C1604       C  0.93624480  0.00659259  0.26626229    -0.31000
C1605       C  0.85415950  0.58557293  0.30869515     0.03200
C1606       C  0.83960963  0.59833752  0.31724796    -0.32700
H1607       H  0.84135397  0.55086760  0.27048202     0.14300
H1608       H  0.87054706  0.52188536  0.25650332     0.14100
H1609       H  0.93534962  0.55470738  0.31396124     0.13900
H1610       H  0.90614405  0.58366259  0.32793846     0.13000
C1611       C  0.67159518  0.56618925  0.30046344     0.19300
C1612       C  0.64225567  0.54076035  0.31303164    -0.09800
C1613       C  0.60764803  0.52582930  0.30545379    -0.10700
C1614       C  0.60213746  0.53633174  0.28527895     0.20900
C1615       C  0.63148432  0.56182930  0.27274563    -0.12700
C1616       C  0.66608158  0.57669095  0.28029595    -0.11000
C1617       C  0.56657702  0.52047275  0.27708715     0.01800
C1618       C  0.53863006  0.00827698  0.26588301    -0.31000
C1619       C  0.70717391  0.58196542  0.30857391     0.03200
C1620       C  0.73590547  0.59498293  0.31694527    -0.32700
H1621       H  0.64614691  0.53249864  0.32868391     0.14300
H1622       H  0.58262950  0.00223455  0.31243468     0.14100
H1623       H  0.62761042  0.57016936  0.25711670     0.13900
H1624       H  0.68847552  0.59638901  0.27044509     0.13000
C1625       C  0.59792387  0.70759842  0.89419117     0.19300
C1626       C  0.61087749  0.71744298  0.91538710    -0.09800
C1627       C  0.59538541  0.69172821  0.93200792    -0.10700
C1628       C  0.56681725  0.65614486  0.92747308     0.20900
C1629       C  0.55375420  0.64637960  0.90629241    -0.12700
C1630       C  0.56925805  0.67208466  0.88967071    -0.11000
C1631       C  0.55240608  0.62891616  0.94412820     0.01800
C1632       C  0.54156356  0.60402097  0.95660551    -0.31000
C1633       C  0.61378795  0.73423039  0.87724838     0.03200
C1634       C  0.62771067  0.75853428  0.86423652    -0.32700
H1635       H  0.63301041  0.74491333  0.91902689     0.14300
H1636       H  0.60590152  0.69944320  0.94828776     0.14100
H1637       H  0.53188959  0.61881175  0.90259715     0.13900
H1638       H  0.55903300  0.66426727  0.87333545     0.13000
C1639       C  0.83491869  0.91122950  0.92746501     0.19300
C1640       C  0.83925105  0.93498591  0.91091958    -0.09800
C1641       C  0.81402858  0.92269310  0.89436008    -0.10700
C1642       C  0.78439646  0.88659723  0.89429437     0.20900
C1643       C  0.78028897  0.86273391  0.91070278    -0.12700
C1644       C  0.80550616  0.87501632  0.92724806    -0.11000
C1645       C  0.75742400  0.87432671  0.87796478     0.01800
C1646       C  0.73329687  0.86318148  0.86529578    -0.31000
C1647       C  0.86022676  0.92416433  0.94487754     0.03200
C1648       C  0.88111184  0.93495175  0.95963953    -0.32700
H1649       H  0.86189409  0.96304765  0.91094712     0.14300
H1650       H  0.81739377  0.94138901  0.88178589     0.14100
H1651       H  0.75739402  0.83479856  0.91084573     0.13900
H1652       H  0.80188424  0.85642579  0.93996998     0.13000
C1653       C  0.56851229  0.89959373  0.92152022     0.19300
C1654       C  0.57388917  0.91233502  0.90015840    -0.09800
C1655       C  0.58880376  0.90135921  0.88490414    -0.10700
C1656       C  0.59843725  0.87761676  0.89096146     0.20900
C1657       C  0.59247082  0.86435190  0.91221007    -0.12700
C1658       C  0.57756277  0.87533695  0.92746653    -0.11000
C1659       C  0.61549746  0.86773220  0.87566908     0.01800
C1660       C  0.63042712  0.85897813  0.86373557    -0.31000
C1661       C  0.55513646  0.91274137  0.93741297     0.03200
C1662       C  0.54533925  0.92658898  0.94963754    -0.32700
H1663       H  0.56706417  0.93117856  0.89539268     0.14300
H1664       H  0.59331138  0.91178501  0.86852366     0.14100
H1665       H  0.59985078  0.84598487  0.91705665     0.13900
H1666       H  0.57361236  0.86538673  0.94393146     0.13000
C1667       C  0.86825544  0.92019655  0.78443071     0.19300
C1668       C  0.83853229  0.89452132  0.77223054    -0.09800
C1669       C  0.80426362  0.87978584  0.78024751    -0.10700
C1670       C  0.79958712  0.89058644  0.80054577     0.20900
C1671       C  0.82931928  0.91597219  0.81283851    -0.12700
C1672       C  0.86357554  0.93081674  0.80477853    -0.11000
C1673       C  0.76443997  0.87552029  0.80897008     0.01800
C1674       C  0.73592915  0.86327256  0.81735744    -0.31000
C1675       C  0.90339813  0.93623803  0.77574711     0.03200
C1676       C  0.93187750  0.94962036  0.76708613    -0.32700
H1677       H  0.84185956  0.88604011  0.75649857     0.14300
H1678       H  0.78149210  0.86008043  0.77063569     0.14100
H1679       H  0.82600027  0.92438346  0.82860204     0.13900
H1680       H  0.88634756  0.95066131  0.81433887     0.13000
C1681       C  0.56583533  0.92252635  0.78397840     0.19300
C1682       C  0.59166826  0.94011207  0.80019145    -0.09800
C1683       C  0.60952309  0.92478668  0.80776948    -0.10700
C1684       C  0.60178100  0.89190556  0.79909240     0.20900
C1685       C  0.57600365  0.87437346  0.78285132    -0.12700
C1686       C  0.55807775  0.88963469  0.77532715    -0.11000
C1687       C  0.61943254  0.87565608  0.80741616     0.01800
C1688       C  0.63344065  0.86229153  0.81590635    -0.31000
C1689       C  0.54798742  0.93859001  0.77569449     0.03200
C1690       C  0.53363938  0.95158341  0.76718740    -0.32700
H1691       H  0.59800759  0.96561697  0.80694484     0.14300
H1692       H  0.62925078  0.93848396  0.82043045     0.14100
H1693       H  0.56968085  0.84888915  0.77607610     0.13900
H1694       H  0.53831213  0.87590249  0.76268957     0.13000
C1695       C  0.56843325  0.62171339  0.78236658     0.19300
C1696       C  0.59990514  0.65085176  0.77320145    -0.09800
C1697       C  0.61522874  0.68618881  0.78109835    -0.10700
C1698       C  0.59913292  0.69256186  0.79819336     0.20900
C1699       C  0.56749375  0.66347094  0.80721769    -0.12700
C1700       C  0.55214602  0.62815781  0.79929717    -0.11000
C1701       C  0.61574042  0.72853727  0.80716481     0.01800
C1702       C  0.62959165  0.75759543  0.81611028    -0.31000
C1703       C  0.55256621  0.58539741  0.77410555     0.03200
C1704       C  0.53910435  0.55575294  0.76598061    -0.32700
H1705       H  0.61260359  0.64623518  0.75999577     0.14300
H1706       H  0.63973838  0.70842968  0.77402944     0.14100
H1707       H  0.55489507  0.66804243  0.82050646     0.13900
H1708       H  0.52771994  0.60589627  0.80643159     0.13000
C1709       C  0.59559344  0.70909380  0.59006824     0.19300
C1710       C  0.61739439  0.70449923  0.57644165    -0.09800
C1711       C  0.60234886  0.67826332  0.56010214    -0.10700
C1712       C  0.56543275  0.65656556  0.55726711     0.20900
C1713       C  0.54358119  0.66122098  0.57083865    -0.12700
C1714       C  0.55865833  0.68751982  0.58720364    -0.11000
C1715       C  0.55014003  0.62809710  0.54132985     0.01800
C1716       C  0.53916414  0.60266314  0.52924563    -0.31000
C1717       C  0.61136302  0.73639893  0.60669304     0.03200
C1718       C  0.62579686  0.76054933  0.61982091    -0.32700
H1719       H  0.64598491  0.72110790  0.57849653     0.14300
H1720       H  0.61945342  0.67463859  0.54982862     0.14100
H1721       H  0.51497609  0.64432983  0.56890947     0.13900
H1722       H  0.54158178  0.69093652  0.59763885     0.13000
C1723       C  0.78516185  0.89169901  0.59341960     0.19300
C1724       C  0.78020322  0.90398099  0.57374966    -0.09800
C1725       C  0.80579609  0.91657403  0.55743030    -0.10700
C1726       C  0.83649452  0.91693947  0.56068075     0.20900
C1727       C  0.84158433  0.90485849  0.58040802    -0.12700
C1728       C  0.81595563  0.89225477  0.59675619    -0.11000
C1729       C  0.86236373  0.92914708  0.54361639     0.01800
C1730       C  0.88329713  0.93890765  0.52892838    -0.31000
C1731       C  0.75802269  0.87753114  0.60978298     0.03200
C1732       C  0.73355503  0.86473672  0.62232316    -0.32700
H1733       H  0.75642098  0.90353031  0.57096805     0.14300
H1734       H  0.80153803  0.92577529  0.54223936     0.14100
H1735       H  0.86519439  0.90495958  0.58308354     0.13900
H1736       H  0.81999433  0.88270074  0.61187940     0.13000
C1737       C  0.57312755  0.90385231  0.56516528     0.19300
C1738       C  0.59535050  0.89292876  0.55879604    -0.09800
C1739       C  0.61062241  0.88292410  0.57440432    -0.10700
C1740       C  0.60381342  0.88391274  0.59642551     0.20900
C1741       C  0.58143377  0.89463786  0.60278792    -0.12700
C1742       C  0.56613946  0.90461366  0.58718092    -0.11000
C1743       C  0.61954665  0.87346193  0.61233791     0.01800
C1744       C  0.63290213  0.86314687  0.62444576    -0.31000
C1745       C  0.55896646  0.91618483  0.54933050     0.03200
C1746       C  0.54837123  0.92952749  0.53734915    -0.32700
H1747       H  0.60112670  0.89249132  0.54183382     0.14300
H1748       H  0.62784038  0.87457398  0.56932460     0.14100
H1749       H  0.57595399  0.89545194  0.61975347     0.13900
H1750       H  0.54918513  0.91328045  0.59227824     0.13000
C1751       C  0.59579498  0.68865502  0.68424452     0.19300
C1752       C  0.58580807  0.68158461  0.70605584    -0.09800
C1753       C  0.57027640  0.64649115  0.71435602    -0.10700
C1754       C  0.56474184  0.61831765  0.70091340     0.20900
C1755       C  0.57461355  0.62534209  0.67908049    -0.12700
C1756       C  0.59008262  0.66043961  0.67075989    -0.11000
C1757       C  0.54920829  0.58242800  0.70971811     0.01800
C1758       C  0.53639180  0.55352952  0.71866903    -0.31000
C1759       C  0.61222394  0.72483630  0.67568817     0.03200
C1760       C  0.62641745  0.75458653  0.66762576    -0.32700
H1761       H  0.59010474  0.70316739  0.71663283     0.14300
H1762       H  0.56264519  0.64132994  0.73124836     0.14100
H1763       H  0.57045895  0.60377883  0.66854193     0.13900
H1764       H  0.59771283  0.66561666  0.65386112     0.13000
C1765       C  0.86720479  0.91921269  0.70315357     0.19300
C1766       C  0.84248604  0.92206576  0.71492312    -0.09800
C1767       C  0.80783943  0.90597686  0.70712075    -0.10700
C1768       C  0.79771388  0.88704180  0.68743819     0.20900
C1769       C  0.82238403  0.88406038  0.67570535    -0.12700
C1770       C  0.85699538  0.90002912  0.68355706    -0.11000
C1771       C  0.76253920  0.87177347  0.67882533     0.01800
C1772       C  0.73416848  0.85974702  0.67021049    -0.31000
C1773       C  0.90281591  0.93573147  0.71137471     0.03200
C1774       C  0.93164827  0.94941628  0.71972590    -0.32700
H1775       H  0.85004311  0.93684570  0.73008781     0.14300
H1776       H  0.78909752  0.90859916  0.71631523     0.14100
H1777       H  0.81493903  0.86963793  0.66041447     0.13900
H1778       H  0.87579473  0.89756008  0.67431824     0.13000
C1779       C  0.56385525  0.91916680  0.70431382     0.19300
C1780       C  0.58670279  0.91623197  0.71806162    -0.09800
C1781       C  0.60384156  0.90004372  0.71066033    -0.10700
C1782       C  0.59827177  0.88677959  0.68943730     0.20900
C1783       C  0.57517708  0.88942649  0.67577319    -0.12700
C1784       C  0.55800242  0.90554541  0.68318217    -0.11000
C1785       C  0.61694186  0.87152600  0.68125070     0.01800
C1786       C  0.63194956  0.85953256  0.67237568    -0.31000
C1787       C  0.54661068  0.93623052  0.71197262     0.03200
C1788       C  0.53295358  0.95035213  0.71992474    -0.32700
H1789       H  0.59152473  0.92677393  0.73441383     0.14300
H1790       H  0.62167402  0.89824773  0.72137314     0.14100
H1791       H  0.57067171  0.87926393  0.65933940     0.13900
H1792       H  0.54037840  0.90758267  0.67241276     0.13000
loop_ 
_geom_bond_atom_site_label_1 
_geom_bond_atom_site_label_2 
_geom_bond_distance 
_geom_bond_site_symmetry_2 
_ccdc_geom_bond_type 
C1            H2   1.113       .  S
C1            C7   1.527       .  S
C1            C6   1.530       .  S
C1            C5   1.529       .  S
C3            H4   1.112       .  S
C3            C9   1.539       .  S
C3            C8   1.539       .  S
C3           C10   1.542       .  S
C5            C8   1.368       .  D
C5          C374   1.440       .  S
C6            C9   1.367       .  D
C6          C388   1.443       .  S
C7           C10   1.368       .  D
C7          C400   1.443       .  S
C8          C416   1.445       .  S
C9          C428   1.445       .  S
C10         C442   1.445       .  S
C11          H12   1.112       .  S
C11          C17   1.530       .  S
C11          C16   1.527       .  S
C11          C15   1.528       .  S
C13          H14   1.112       .  S
C13          C19   1.543       .  S
C13          C18   1.541       .  S
C13          C20   1.539       .  S
C15          C18   1.367       .  D
C15         C290   1.441       .  S
C16          C19   1.369       .  D
C16         C316   1.444       .  S
C17          C20   1.368       .  D
C17         C302   1.441       .  S
C18         C358   1.444       .  S
C19         C344   1.445       .  S
C20         C330   1.447       .  S
C21          H22   1.112       .  S
C21          C27   1.536       .  S
C21         C922   1.536   1_455  S
C21         C473   1.535       .  S
C23          H24   1.112       .  S
C23          C30   1.537       .  S
C23         C925   1.537   1_455  S
C23         C476   1.536       .  S
C25         C469   1.538   1_545  S
C25          C28   1.369       .  D
C25         C414   1.447       .  S
C26         C917   1.535       .  S
C26          C29   1.369       .  D
C26         C430   1.446       .  S
C27          C30   1.368       .  D
C27         C444   1.447       .  S
C28         C471   1.535   1_545  S
C28         C360   1.446       .  S
C29         C919   1.538       .  S
C29         C332   1.447       .  S
C30         C346   1.447       .  S
C31          H32   1.113       .  S
C31          C37   1.530       .  S
C31          C36   1.528       .  S
C31          C35   1.528       .  S
C33          H34   1.112       .  S
C33          C39   1.542       .  S
C33          C38   1.541       .  S
C33          C40   1.540       .  S
C35          C38   1.368       .  D
C35         C218   1.441       .  S
C36          C39   1.369       .  D
C36         C234   1.444       .  S
C37          C40   1.367       .  D
C37         C204   1.442       .  S
C38         C248   1.445       .  S
C39         C262   1.445       .  S
C40         C276   1.447       .  S
C41          H42   1.113       .  S
C41          C47   1.527       .  S
C41          C46   1.529       .  S
C41          C45   1.528       .  S
C43          H44   1.112       .  S
C43          C49   1.539       .  S
C43          C48   1.541       .  S
C43          C50   1.543       .  S
C45          C48   1.368       .  D
C45         C134   1.441       .  S
C46          C49   1.367       .  D
C46         C122   1.442       .  S
C47          C50   1.368       .  D
C47         C150   1.442       .  S
C48         C162   1.445       .  S
C49         C190   1.444       .  S
C50         C176   1.445       .  S
C51          H52   1.112       .  S
C51          C57   1.536       .  S
C51          C55   1.536       .  S
C51         C952   1.537       .  S
C53          H54   1.111       .  S
C53          C58   1.538       .  S
C53          C60   1.539       .  S
C53         C955   1.538       .  S
C55          C58   1.369       .  D
C55         C164   1.447       .  S
C56         C947   1.537   1_455  S
C56          C59   1.369       .  D
C56         C192   1.446       .  S
C57          C60   1.369       .  D
C57         C178   1.448       .  S
C58         C246   1.446       .  S
C59         C949   1.538   1_455  S
C59         C274   1.450       .  S
C60         C260   1.448       .  S
O61         Ni67   1.923       .  S
O61          C82   1.267       .  A
O62         Ni85   1.908   1_554  S
O62          C71   1.265       .  A
O63        Ni515   1.915       .  S
O63        Ni981   1.906   1_455  S
O63       Ni1423   1.916   1_455  S
O63         H982   0.966   1_455  S
C64          O81   1.274       .  A
C64         O521   1.274   1_545  A
C64         C148   1.433       .  S
O65         Ni84   1.923       .  S
O65          C71   1.267       .  A
O66         Ni84   1.905   1_556  S
O66          C68   1.266       .  A
Ni67         O72   1.906       .  S
Ni67        O518   1.923   1_545  S
Ni67        O511   1.913   1_445  S
C68          O78   1.268       .  A
C68         C304   1.432       .  S
O69        Ni981   1.921   1_455  S
O69          C75   1.275       .  A
O70        Ni515   1.921       .  S
O70          C75   1.274       .  A
C71         C136   1.432       .  S
O72          C74   1.266   1_556  A
O73         Ni84   1.920       .  S
O73         C512   1.274       .  A
C74         O528   1.267   1_545  A
C74         C120   1.433       .  S
C75         C318   1.435       .  S
H76          O77   0.967       .  S
O77         Ni85   1.917   1_554  S
O77         Ni84   1.915       .  S
O77        Ni527   1.908   1_554  S
O78        Ni527   1.922       .  S
Ni79         O83   1.906       .  S
Ni79         O81   1.919   1_556  S
Ni79        O526   1.924   1_545  S
Ni79       O1407   1.912   1_545  S
Ni79        O525   1.908   1_546  S
O80        Ni981   1.923   1_454  S
O80         C522   1.268       .  A
C82         O979   1.265   1_455  A
C82         C288   1.431       .  S
O83         C978   1.265       .  A
Ni85        O965   1.920       .  S
Ni85        O976   1.923   1_556  S
Ni85        O959   1.908       .  S
H86         O959   0.967       .  S
O87         Ni93   1.925       .  S
O87         C108   1.268       .  A
O88        Ni111   1.907       .  S
O88         C993   1.265       .  A
O89         Ni93   1.916       .  S
O89        Ni105   1.914       .  S
O89        Ni559   1.910       .  S
O89         H112   0.967       .  S
C90         O107   1.274       .  A
C90          O99   1.274       .  A
C90         C402   1.433       .  S
O91        Ni110   1.923       .  S
O91          C97   1.267       .  A
O92        Ni110   1.906       .  S
O92          C94   1.266       .  A
Ni93         O96   1.923       .  S
Ni93         O98   1.906       .  S
C94         O552   1.268   1_545  A
C94         C206   1.433       .  S
O95        Ni111   1.920       .  S
O95         C101   1.275       .  A
O96         C549   1.274       .  A
C97         O984   1.265   1_455  A
C97         C372   1.430       .  S
O98         C100   1.266       .  A
O99        Ni558   1.921       .  S
C100        O106   1.268       .  A
C100        C386   1.433       .  S
C101        O544   1.274   1_545  A
C101        C232   1.435       .  S
H102        O999   0.966       .  S
O103      Ni1455   1.914   1_455  S
O103      Ni1001   1.910   1_455  S
O103       Ni558   1.916       .  S
O103        H998   0.966   1_455  S
O104      Ni1001   1.921   1_455  S
O104        C542   1.267       .  A
Ni105       O109   1.906       .  S
Ni105      O1000   1.920       .  S
Ni105      O1003   1.919       .  S
Ni105       O999   1.909       .  S
O106       Ni559   1.923       .  S
O107      Ni1001   1.917   1_455  S
C108        O109   1.264       .  A
C108        C220   1.432       .  S
Ni110       O547   1.922   1_545  S
Ni110       O551   1.914   1_545  S
Ni111       O554   1.924   1_545  S
Ni111       O537   1.907   1_545  S
Ni111      O1447   1.915   1_545  S
C113        C121   1.437       .  S
C113        C114   1.400       .  A
C113        C118   1.401       .  A
C114        C115   1.396       .  A
C114        H123   1.084       .  S
C115        C116   1.400       .  A
C115        H124   1.084       .  S
C116        C119   1.438       .  S
C116        C117   1.402       .  A
C117        C118   1.400       .  A
C117        H125   1.083       .  S
C118        H126   1.083       .  S
C119        C120   1.205       .  T
C121        C122   1.204       .  T
C127        C135   1.437       .  S
C127        C128   1.402       .  A
C127        C132   1.400       .  A
C128        C129   1.398       .  A
C128        H137   1.083       .  S
C129        C130   1.400       .  A
C129        H138   1.084       .  S
C130        C133   1.436       .  S
C130        C131   1.401       .  A
C131        C132   1.397       .  A
C131        H139   1.084       .  S
C132        H140   1.083       .  S
C133        C134   1.203       .  T
C135        C136   1.204       .  T
C141        C149   1.437       .  S
C141        C142   1.402       .  A
C141        C146   1.399       .  A
C142        C143   1.399       .  A
C142        H151   1.084       .  S
C143        C144   1.401       .  A
C143        H600   1.083       .  S
C144        C147   1.438       .  S
C144        C145   1.402       .  A
C145        C146   1.397       .  A
C145        H153   1.084   1_545  S
C146        H154   1.084       .  S
C147        C148   1.205       .  T
C149        C150   1.204       .  T
H152        C591   1.084       .  S
C155        C163   1.441       .  S
C155        C156   1.401       .  A
C155        C160   1.402       .  A
C156        C157   1.400       .  A
C156        H165   1.083       .  S
C157        C158   1.402       .  A
C157        H166   1.084       .  S
C158        C161   1.441       .  S
C158        C159   1.401       .  A
C159        C160   1.399       .  A
C159        H167   1.083       .  S
C160        H168   1.083       .  S
C161        C162   1.206       .  T
C163        C164   1.207       .  T
C169        C177   1.441       .  S
C169        C170   1.401       .  A
C169        C174   1.402       .  A
C170        C171   1.400       .  A
C170        H627   1.083       .  S
C171        C172   1.402       .  A
C171        H180   1.084       .  S
C172        C175   1.441       .  S
C172        C173   1.401       .  A
C173        C174   1.400       .  A
C173        H181   1.083       .  S
C174        H182   1.083       .  S
C175        C176   1.206       .  T
C177        C626   1.207       .  T
C178        C625   1.207       .  T
H179        C618   1.083       .  S
C183        C191   1.439       .  S
C183        C184   1.402       .  A
C183        C188   1.400       .  A
C184        C185   1.398       .  A
C184        H641   1.083       .  S
C185        C186   1.400       .  A
C185        H194   1.083       .  S
C186        C189   1.439       .  S
C186        C187   1.402       .  A
C187        C188   1.399       .  A
C187        H195   1.084       .  S
C188        H196   1.083       .  S
C189        C190   1.205       .  T
C191        C640   1.205       .  T
C192        C639   1.206       .  T
H193        C632   1.084       .  S
C197        C205   1.438       .  S
C197        C198   1.402       .  A
C197        C202   1.400       .  A
C198        C199   1.399       .  A
C198        H207   1.083   1_545  S
C199        C200   1.401       .  A
C199        H208   1.084       .  S
C200        C203   1.437       .  S
C200        C201   1.400       .  A
C201        C202   1.397       .  A
C201        H209   1.084       .  S
C202        H210   1.084       .  S
C203        C204   1.204       .  T
C205        C206   1.205       .  T
C211        C219   1.437       .  S
C211        C212   1.402       .  A
C211        C216   1.400       .  A
C212        C213   1.398       .  A
C212        H221   1.083       .  S
C213        C214   1.400       .  A
C213        H222   1.084       .  S
C214        C217   1.436       .  S
C214        C215   1.401       .  A
C215        C216   1.397       .  A
C215        H223   1.084       .  S
C216        H224   1.083       .  S
C217        C218   1.204       .  T
C219        C220   1.204       .  T
C225        C233   1.439       .  S
C225        C226   1.401       .  A
C225        C230   1.402       .  A
C226        C227   1.399       .  A
C226        H235   1.084       .  S
C227        C228   1.403       .  A
C227        H236   1.084       .  S
C228        C231   1.440       .  S
C228        C229   1.400       .  A
C229        C230   1.399       .  A
C229        H237   1.083       .  S
C230        H238   1.084       .  S
C231        C232   1.206       .  T
C233        C234   1.205       .  T
C239        C247   1.441       .  S
C239        C240   1.402       .  A
C239        C244   1.401       .  A
C240        C241   1.399       .  A
C240        H249   1.084       .  S
C241        C242   1.401       .  A
C241        H250   1.083       .  S
C242        C245   1.441       .  S
C242        C243   1.402       .  A
C243        C244   1.400       .  A
C243        H251   1.084       .  S
C244        H252   1.083       .  S
C245        C246   1.206       .  T
C247        C248   1.206       .  T
C253        C261   1.440       .  S
C253        C254   1.401       .  A
C253        C258   1.402       .  A
C254        C255   1.400       .  A
C254        H263   1.083       .  S
C255        C256   1.403       .  A
C255        H264   1.084       .  S
C256        C259   1.441       .  S
C256        C257   1.400       .  A
C257        C258   1.399       .  A
C257        H265   1.083       .  S
C258        H266   1.084       .  S
C259        C708   1.207       .  T
C260        C707   1.208       .  T
C261        C262   1.206       .  T
C267        C275   1.442       .  S
C267        C268   1.402       .  A
C267        C272   1.401       .  A
C268        C269   1.401       .  A
C268        H277   1.084       .  S
C269        C270   1.402       .  A
C269        H726   1.083       .  S
C270        C273   1.443       .  S
C270        C271   1.402       .  A
C271        C272   1.400       .  A
C271        H279   1.083       .  S
C272        H280   1.083       .  S
C273        C722   1.208       .  T
C274        C721   1.208       .  T
C275        C276   1.207       .  T
H278        C717   1.083       .  S
C281        C289   1.436       .  S
C281        C282   1.400       .  A
C281        C286   1.401       .  A
C282        C283   1.398       .  A
C282        H291   1.083       .  S
C283        C284   1.402       .  A
C283        H292   1.084       .  S
C284        C287   1.436       .  S
C284        C285   1.400       .  A
C285        C286   1.398       .  A
C285        H293   1.083       .  S
C286        H294   1.084       .  S
C287        C288   1.204       .  T
C289        C290   1.203       .  T
C295        C303   1.437       .  S
C295        C296   1.400       .  A
C295        C300   1.401       .  A
C296        C297   1.397       .  A
C296        H305   1.084       .  S
C297        C298   1.400       .  A
C297        H306   1.084       .  S
C298        C301   1.436       .  S
C298        C299   1.401       .  A
C299        C300   1.399       .  A
C299        H307   1.083       .  S
C300        H308   1.083       .  S
C301        C302   1.203       .  T
C303        C304   1.204       .  T
C309        C317   1.440       .  S
C309        C310   1.402       .  A
C309        C314   1.401       .  A
C310        C311   1.399       .  A
C310        H319   1.083       .  S
C311        C312   1.401       .  A
C311        H320   1.083       .  S
C312        C315   1.439       .  S
C312        C313   1.402       .  A
C313        C314   1.399       .  A
C313        H321   1.084       .  S
C314        H322   1.083       .  S
C315        C316   1.205       .  T
C317        C318   1.206       .  T
C323        C331   1.442       .  S
C323        C324   1.402       .  A
C323        C328   1.401       .  A
C324        C325   1.400       .  A
C324        H333   1.083       .  S
C325        C326   1.401       .  A
C325        H334   1.083       .  S
C326        C329   1.442       .  S
C326        C327   1.402       .  A
C327        C328   1.400       .  A
C327        H335   1.084       .  S
C328        H336   1.083       .  S
C329        C330   1.207       .  T
C331        C332   1.207       .  T
C337        C345   1.441       .  S
C337        C338   1.400       .  A
C337        C342   1.403       .  A
C338        C339   1.399       .  A
C338        H347   1.083       .  S
C339        C340   1.402       .  A
C339        H348   1.083       .  S
C340        C343   1.441       .  S
C340        C341   1.401       .  A
C341        C342   1.400       .  A
C341        H349   1.083       .  S
C342        H350   1.083       .  S
C343        C344   1.206       .  T
C345        C346   1.207       .  T
C351        C359   1.440       .  S
C351        C352   1.401       .  A
C351        C356   1.402       .  A
C352        C353   1.400       .  A
C352        H361   1.083       .  S
C353        C354   1.402       .  A
C353        H362   1.083       .  S
C354        C357   1.440       .  S
C354        C355   1.400       .  A
C355        C356   1.398       .  A
C355        H363   1.083       .  S
C356        H364   1.082       .  S
C357        C358   1.206       .  T
C359        C360   1.206       .  T
C365        C373   1.435       .  S
C365        C366   1.402       .  A
C365        C370   1.399       .  A
C366        C367   1.398       .  A
C366        H375   1.084       .  S
C367        C368   1.400       .  A
C367        H376   1.083       .  S
C368        C371   1.436       .  S
C368        C369   1.402       .  A
C369        C370   1.397       .  A
C369        H377   1.084       .  S
C370        H378   1.084       .  S
C371        C372   1.203       .  T
C373        C374   1.203       .  T
C379        C387   1.437       .  S
C379        C380   1.400       .  A
C379        C384   1.402       .  A
C380        C381   1.396       .  A
C380        H389   1.084       .  S
C381        C382   1.400       .  A
C381        H390   1.084       .  S
C382        C385   1.438       .  S
C382        C383   1.402       .  A
C383        C384   1.401       .  A
C383        H391   1.083       .  S
C384        H392   1.084       .  S
C385        C386   1.205       .  T
C387        C388   1.204       .  T
C393        C401   1.438       .  S
C393        C394   1.401       .  A
C393        C398   1.401       .  A
C394        C395   1.398       .  A
C394        H403   1.084       .  S
C395        C396   1.401       .  A
C395        H404   1.084       .  S
C396        C399   1.438       .  S
C396        C397   1.401       .  A
C397        C398   1.399       .  A
C397        H405   1.083       .  S
C398        H406   1.083       .  S
C399        C400   1.205       .  T
C401        C402   1.205       .  T
C407        C415   1.440       .  S
C407        C408   1.401       .  A
C407        C412   1.402       .  A
C408        C409   1.399       .  A
C408        H417   1.083       .  S
C409        C410   1.402       .  A
C409        H418   1.084       .  S
C410        C413   1.441       .  S
C410        C411   1.401       .  A
C411        C412   1.399       .  A
C411        H419   1.083       .  S
C412        H420   1.084       .  S
C413        C414   1.207       .  T
C415        C416   1.206       .  T
C421        C429   1.440       .  S
C421        C422   1.402       .  A
C421        C426   1.400       .  A
C422        C423   1.400       .  A
C422        H431   1.084       .  S
C423        C424   1.401       .  A
C423        H432   1.083       .  S
C424        C427   1.440       .  S
C424        C425   1.402       .  A
C425        C426   1.399       .  A
C425        H433   1.084       .  S
C426        H434   1.083       .  S
C427        C428   1.206       .  T
C429        C430   1.206       .  T
C435        C443   1.441       .  S
C435        C436   1.402       .  A
C435        C440   1.401       .  A
C436        C437   1.399       .  A
C436        H445   1.084       .  S
C437        C438   1.401       .  A
C437        H446   1.083       .  S
C438        C441   1.440       .  S
C438        C439   1.402       .  A
C439        C440   1.400       .  A
C439        H447   1.084       .  S
C440        H448   1.083       .  S
C441        C442   1.206       .  T
C443        C444   1.206       .  T
C449        H450   1.113       .  S
C449        C455   1.526       .  S
C449        C454   1.530       .  S
C449        C453   1.527       .  S
C451        H452   1.111       .  S
C451        C457   1.541       .  S
C451        C456   1.542       .  S
C451        C458   1.544       .  S
C453        C456   1.368       .  D
C453        C822   1.443       .  S
C454        C457   1.368       .  D
C454        C836   1.442       .  S
C455        C458   1.368       .  D
C455        C848   1.441       .  S
C456        C864   1.443       .  S
C457        C876   1.448       .  S
C458        C890   1.447       .  S
C459        H460   1.113       .  S
C459        C465   1.530       .  S
C459        C464   1.527       .  S
C459        C463   1.527       .  S
C461        H462   1.112       .  S
C461        C467   1.542       .  S
C461        C466   1.541       .  S
C461        C468   1.540       .  S
C463        C466   1.368       .  D
C463        C738   1.439       .  S
C464        C467   1.368       .  D
C464        C764   1.444       .  S
C465        C468   1.368       .  D
C465        C750   1.444       .  S
C466        C806   1.446       .  S
C467        C792   1.445       .  S
C468        C778   1.445       .  S
C469        H470   1.111       .  S
C469        C475   1.539       .  S
C469       C1370   1.538   1_455  S
C471        H472   1.112       .  S
C471       C1373   1.536   1_455  S
C471        C478   1.535       .  S
C473        C476   1.369       .  D
C473        C862   1.444       .  S
C474       C1365   1.537       .  S
C474        C477   1.369       .  D
C474        C878   1.449       .  S
C475        C478   1.368       .  D
C475        C892   1.448       .  S
C476        C808   1.447       .  S
C477       C1367   1.537       .  S
C477        C780   1.445       .  S
C478        C794   1.446       .  S
C479        H480   1.113       .  S
C479        C485   1.529       .  S
C479        C484   1.526       .  S
C479        C483   1.528       .  S
C481        H482   1.111       .  S
C481        C487   1.543       .  S
C481        C486   1.541       .  S
C481        C488   1.542       .  S
C483        C486   1.368       .  D
C483        C666   1.441       .  S
C484        C487   1.368       .  D
C484        C682   1.443       .  S
C485        C488   1.367       .  D
C485        C652   1.441       .  S
C486        C696   1.445       .  S
C487        C710   1.446       .  S
C488        C724   1.448       .  S
C489        H490   1.113       .  S
C489        C495   1.526       .  S
C489        C494   1.530       .  S
C489        C493   1.527       .  S
C491        H492   1.111       .  S
C491        C497   1.540       .  S
C491        C496   1.542       .  S
C491        C498   1.545       .  S
C493        C496   1.368       .  D
C493        C582   1.440       .  S
C494        C497   1.367       .  D
C494        C570   1.442       .  S
C495        C498   1.368       .  D
C495        C598   1.445       .  S
C496        C610   1.446       .  S
C497        C638   1.446       .  S
C498        C624   1.447       .  S
C499        H500   1.112       .  S
C499        C505   1.535       .  S
C499       C1400   1.537       .  S
C499        C503   1.536       .  S
C501        H502   1.112       .  S
C501       C1403   1.537       .  S
C501        C506   1.537       .  S
C501        C508   1.538       .  S
C503        C506   1.368       .  D
C503        C612   1.446       .  S
C504       C1395   1.536   1_455  S
C504        C507   1.369       .  D
C504        C640   1.444   1_565  S
C505        C508   1.368       .  D
C505        C626   1.447   1_565  S
C506        C694   1.446       .  S
C507       C1397   1.536   1_455  S
C507        C722   1.449   1_565  S
C508        C708   1.447   1_565  S
O509       Ni515   1.924       .  S
O509        C530   1.267       .  A
O510       Ni533   1.908   1_554  S
O510        C519   1.265       .  A
O511      Ni1429   1.906       .  S
O511       Ni975   1.914   1_565  S
O511       H1430   0.967       .  S
C512        O529   1.275       .  A
C512        C596   1.435       .  S
O513       Ni532   1.923       .  S
O513        C519   1.267       .  A
O514       Ni532   1.907   1_556  S
O514        C516   1.266       .  A
Ni515       O520   1.907       .  S
C516        O526   1.269       .  A
C516        C752   1.434       .  S
O517      Ni1429   1.920   1_455  S
O517        C523   1.275       .  A
O518        C523   1.274       .  A
C519        C584   1.431       .  S
O520        C522   1.266   1_556  A
O521       Ni532   1.920       .  S
C522        C568   1.434       .  S
C523        C766   1.435       .  S
H524        O525   0.967       .  S
O525       Ni533   1.916   1_554  S
O525       Ni532   1.914       .  S
Ni527       O531   1.906       .  S
Ni527       O529   1.922   1_556  S
Ni527       O959   1.915       .  S
O528      Ni1429   1.922   1_454  S
C530       O1427   1.265   1_455  A
C530        C736   1.431       .  S
O531       C1426   1.265       .  A
Ni533      O1413   1.920       .  S
Ni533      O1424   1.922   1_556  S
Ni533      O1407   1.907       .  S
H534       O1407   0.967       .  S
O535       Ni541   1.925       .  S
O535        C556   1.268       .  A
O536       Ni559   1.906       .  S
O536       C1441   1.264       .  A
O537       Ni541   1.912       .  S
O537       Ni553   1.914       .  S
O537        H560   0.967       .  S
C538        O555   1.274       .  A
C538        O547   1.274       .  A
C538        C850   1.432       .  S
O539       Ni558   1.925       .  S
O539        C545   1.267       .  A
O540       Ni558   1.905       .  S
O540        C542   1.266       .  A
Ni541       O544   1.922       .  S
Ni541       O546   1.906       .  S
C542        C654   1.432       .  S
O543       Ni559   1.914       .  S
O543        C549   1.273       .  A
C545       O1432   1.265   1_455  A
C545        C820   1.433       .  S
O546        C548   1.266       .  A
C548        O554   1.268       .  A
C548        C834   1.434       .  S
C549        C680   1.432       .  S
H550       O1447   0.966       .  S
O551      Ni1007   1.915   1_465  S
O551      Ni1449   1.907   1_455  S
O551       H1446   0.966   1_455  S
O552      Ni1449   1.922   1_455  S
Ni553      O1448   1.922       .  S
Ni553       O557   1.903       .  S
Ni553      O1451   1.917       .  S
Ni553      O1447   1.906       .  S
O555      Ni1449   1.915   1_455  S
C556        O557   1.264       .  A
C556        C668   1.429       .  S
Ni559       O999   1.913       .  S
C561        C569   1.437       .  S
C561        C562   1.401       .  A
C561        C566   1.401       .  A
C562        C563   1.397       .  A
C562        H571   1.084       .  S
C563        C564   1.400       .  A
C563        H572   1.083       .  S
C564        C567   1.438       .  S
C564        C565   1.402       .  A
C565        C566   1.399       .  A
C565        H573   1.083       .  S
C566        H574   1.084       .  S
C567        C568   1.205       .  T
C569        C570   1.204       .  T
C575        C583   1.437       .  S
C575        C576   1.401       .  A
C575        C580   1.401       .  A
C576        C577   1.398       .  A
C576        H585   1.083       .  S
C577        C578   1.400       .  A
C577        H586   1.084       .  S
C578        C581   1.436       .  S
C578        C579   1.401       .  A
C579        C580   1.398       .  A
C579        H587   1.084       .  S
C580        H588   1.083       .  S
C581        C582   1.203       .  T
C583        C584   1.204       .  T
C589        C597   1.440       .  S
C589        C590   1.400       .  A
C589        C594   1.403       .  A
C590        C591   1.399       .  A
C590        H599   1.084       .  S
C591        C592   1.403       .  A
C592        C595   1.441       .  S
C592        C593   1.401       .  A
C593        C594   1.400       .  A
C593        H601   1.083       .  S
C594        H602   1.084       .  S
C595        C596   1.206       .  T
C597        C598   1.206       .  T
C603        C611   1.441       .  S
C603        C604   1.401       .  A
C603        C608   1.402       .  A
C604        C605   1.399       .  A
C604        H613   1.083       .  S
C605        C606   1.402       .  A
C605        H614   1.084       .  S
C606        C609   1.442       .  S
C606        C607   1.402       .  A
C607        C608   1.400       .  A
C607        H615   1.083       .  S
C608        H616   1.084       .  S
C609        C610   1.207       .  T
C611        C612   1.206       .  T
C617        C625   1.443       .  S
C617        C618   1.401       .  A
C617        C622   1.402       .  A
C618        C619   1.400       .  A
C619        C620   1.403       .  A
C619        H628   1.084       .  S
C620        C623   1.443       .  S
C620        C621   1.401       .  A
C621        C622   1.400       .  A
C621        H629   1.083       .  S
C622        H630   1.084       .  S
C623        C624   1.207       .  T
C631        C639   1.440       .  S
C631        C632   1.402       .  A
C631        C636   1.401       .  A
C632        C633   1.399       .  A
C633        C634   1.401       .  A
C633        H642   1.083       .  S
C634        C637   1.441       .  S
C634        C635   1.402       .  A
C635        C636   1.400       .  A
C635        H643   1.084       .  S
C636        H644   1.083       .  S
C637        C638   1.206       .  T
C645        C653   1.436       .  S
C645        C646   1.402       .  A
C645        C650   1.400       .  A
C646        C647   1.400       .  A
C646        H655   1.083       .  S
C647        C648   1.401       .  A
C647        H656   1.083       .  S
C648        C651   1.436       .  S
C648        C649   1.400       .  A
C649        C650   1.396       .  A
C649        H657   1.084       .  S
C650        H658   1.084       .  S
C651        C652   1.203       .  T
C653        C654   1.204       .  T
C659        C667   1.435       .  S
C659        C660   1.401       .  A
C659        C664   1.400       .  A
C660        C661   1.398       .  A
C660        H669   1.084       .  S
C661        C662   1.400       .  A
C661        H670   1.083       .  S
C662        C665   1.436       .  S
C662        C663   1.401       .  A
C663        C664   1.397       .  A
C663        H671   1.084       .  S
C664        H672   1.084       .  S
C665        C666   1.203       .  T
C667        C668   1.203       .  T
C673        C681   1.437       .  S
C673        C674   1.400       .  A
C673        C678   1.401       .  A
C674        C675   1.398       .  A
C674        H683   1.083       .  S
C675        C676   1.402       .  A
C675        H684   1.084       .  S
C676        C679   1.438       .  S
C676        C677   1.400       .  A
C677        C678   1.398       .  A
C677        H685   1.083       .  S
C678        H686   1.084       .  S
C679        C680   1.205       .  T
C681        C682   1.204       .  T
C687        C695   1.441       .  S
C687        C688   1.402       .  A
C687        C692   1.401       .  A
C688        C689   1.399       .  A
C688        H697   1.084       .  S
C689        C690   1.400       .  A
C689        H698   1.083       .  S
C690        C693   1.440       .  S
C690        C691   1.402       .  A
C691        C692   1.400       .  A
C691        H699   1.083       .  S
C692        H700   1.083       .  S
C693        C694   1.206       .  T
C695        C696   1.206       .  T
C701        C709   1.442       .  S
C701        C702   1.401       .  A
C701        C706   1.402       .  A
C702        C703   1.401       .  A
C702        H711   1.083       .  S
C703        C704   1.403       .  A
C703        H712   1.083       .  S
C704        C707   1.443       .  S
C704        C705   1.401       .  A
C705        C706   1.400       .  A
C705        H713   1.083       .  S
C706        H714   1.083       .  S
C709        C710   1.207       .  T
C715        C723   1.444       .  S
C715        C716   1.403       .  A
C715        C720   1.401       .  A
C716        C717   1.401       .  A
C716        H725   1.084       .  S
C717        C718   1.402       .  A
C718        C721   1.444       .  S
C718        C719   1.403       .  A
C719        C720   1.401       .  A
C719        H727   1.083       .  S
C720        H728   1.083       .  S
C723        C724   1.208       .  T
C729        C737   1.435       .  S
C729        C730   1.401       .  A
C729        C734   1.400       .  A
C730        C731   1.397       .  A
C730        H739   1.084       .  S
C731        C732   1.400       .  A
C731        H740   1.083       .  S
C732        C735   1.436       .  S
C732        C733   1.402       .  A
C733        C734   1.398       .  A
C733        H741   1.083       .  S
C734        H742   1.084       .  S
C735        C736   1.204       .  T
C737        C738   1.203       .  T
C743        C751   1.439       .  S
C743        C744   1.401       .  A
C743        C748   1.401       .  A
C744        C745   1.399       .  A
C744        H753   1.083       .  S
C745        C746   1.401       .  A
C745        H754   1.083       .  S
C746        C749   1.439       .  S
C746        C747   1.402       .  A
C747        C748   1.398       .  A
C747        H755   1.084       .  S
C748        H756   1.084       .  S
C749        C750   1.205       .  T
C751        C752   1.206       .  T
C757        C765   1.440       .  S
C757        C758   1.403       .  A
C757        C762   1.400       .  A
C758        C759   1.399       .  A
C758        H767   1.083       .  S
C759        C760   1.401       .  A
C759        H768   1.084       .  S
C760        C763   1.439       .  S
C760        C761   1.402       .  A
C761        C762   1.399       .  A
C761        H769   1.084       .  S
C762        H770   1.083       .  S
C763        C764   1.205       .  T
C765        C766   1.206       .  T
C771        C779   1.440       .  S
C771        C772   1.402       .  A
C771        C776   1.400       .  A
C772        C773   1.400       .  A
C772        H781   1.084       .  S
C773        C774   1.402       .  A
C773        H782   1.083       .  S
C774        C777   1.441       .  S
C774        C775   1.402       .  A
C775        C776   1.399       .  A
C775        H783   1.084       .  S
C776        H784   1.083       .  S
C777        C778   1.206       .  T
C779        C780   1.206       .  T
C785        C793   1.441       .  S
C785        C786   1.401       .  A
C785        C790   1.402       .  A
C786        C787   1.400       .  A
C786        H795   1.083       .  S
C787        C788   1.402       .  A
C787        H796   1.083       .  S
C788        C791   1.441       .  S
C788        C789   1.401       .  A
C789        C790   1.399       .  A
C789        H797   1.083       .  S
C790        H798   1.083       .  S
C791        C792   1.206       .  T
C793        C794   1.206       .  T
C799        C807   1.441       .  S
C799        C800   1.402       .  A
C799        C804   1.401       .  A
C800        C801   1.399       .  A
C800        H809   1.084       .  S
C801        C802   1.401       .  A
C801        H810   1.083       .  S
C802        C805   1.441       .  S
C802        C803   1.402       .  A
C803        C804   1.400       .  A
C803        H811   1.084       .  S
C804        H812   1.083       .  S
C805        C806   1.207       .  T
C807        C808   1.206       .  T
C813        C821   1.438       .  S
C813        C814   1.400       .  A
C813        C818   1.401       .  A
C814        C815   1.397       .  A
C814        H823   1.084       .  S
C815        C816   1.401       .  A
C815        H824   1.084       .  S
C816        C819   1.438       .  S
C816        C817   1.401       .  A
C817        C818   1.400       .  A
C817        H825   1.083       .  S
C818        H826   1.083       .  S
C819        C820   1.205       .  T
C821        C822   1.205       .  T
C827        C835   1.437       .  S
C827        C828   1.401       .  A
C827        C832   1.401       .  A
C828        C829   1.397       .  A
C828        H837   1.084       .  S
C829        C830   1.401       .  A
C829        H838   1.084       .  S
C830        C833   1.439       .  S
C830        C831   1.402       .  A
C831        C832   1.399       .  A
C831        H839   1.083       .  S
C832        H840   1.084       .  S
C833        C834   1.205       .  T
C835        C836   1.204       .  T
C841        C849   1.437       .  S
C841        C842   1.400       .  A
C841        C846   1.401       .  A
C842        C843   1.398       .  A
C842        H851   1.083       .  S
C843        C844   1.401       .  A
C843        H852   1.084       .  S
C844        C847   1.436       .  S
C844        C845   1.400       .  A
C845        C846   1.398       .  A
C845        H853   1.083       .  S
C846        H854   1.083       .  S
C847        C848   1.204       .  T
C849        C850   1.204       .  T
C855        C863   1.439       .  S
C855        C856   1.401       .  A
C855        C860   1.402       .  A
C856        C857   1.398       .  A
C856        H865   1.083       .  S
C857        C858   1.402       .  A
C857        H866   1.083       .  S
C858        C861   1.439       .  S
C858        C859   1.401       .  A
C859        C860   1.399       .  A
C859        H867   1.083       .  S
C860        H868   1.084       .  S
C861        C862   1.205       .  T
C863        C864   1.205       .  T
C869        C877   1.444       .  S
C869        C870   1.403       .  A
C869        C874   1.401       .  A
C870        C871   1.400       .  A
C870        H879   1.083       .  S
C871        C872   1.401       .  A
C871        H880   1.083       .  S
C872        C875   1.443       .  S
C872        C873   1.403       .  A
C873        C874   1.401       .  A
C873        H881   1.084       .  S
C874        H882   1.083       .  S
C875        C876   1.208       .  T
C877        C878   1.208       .  T
C883        C891   1.443       .  S
C883        C884   1.403       .  A
C883        C888   1.400       .  A
C884        C885   1.401       .  A
C884        H893   1.082       .  S
C885        C886   1.401       .  A
C885        H894   1.083       .  S
C886        C889   1.443       .  S
C886        C887   1.402       .  A
C887        C888   1.400       .  A
C887        H895   1.083       .  S
C888        H896   1.083       .  S
C889        C890   1.208       .  T
C891        C892   1.208       .  T
C897        H898   1.113       .  S
C897        C903   1.527       .  S
C897        C902   1.529       .  S
C897        C901   1.528       .  S
C899        H900   1.111       .  S
C899        C905   1.541       .  S
C899        C904   1.540       .  S
C899        C906   1.543       .  S
C901        C904   1.368       .  D
C901       C1270   1.441       .  S
C902        C905   1.367       .  D
C902       C1284   1.441       .  S
C903        C906   1.368       .  D
C903       C1296   1.443       .  S
C904       C1312   1.444       .  S
C905       C1324   1.447       .  S
C906       C1338   1.445       .  S
C907        H908   1.112       .  S
C907        C913   1.530       .  S
C907        C912   1.527       .  S
C907        C911   1.528       .  S
C909        H910   1.111       .  S
C909        C915   1.543       .  S
C909        C914   1.541       .  S
C909        C916   1.540       .  S
C911        C914   1.368       .  D
C911       C1186   1.441       .  S
C912        C915   1.368       .  D
C912       C1212   1.442       .  S
C913        C916   1.368       .  D
C913       C1198   1.442       .  S
C914       C1254   1.445       .  S
C915       C1240   1.447       .  S
C916       C1226   1.446       .  S
C917        H918   1.112       .  S
C917        C923   1.536       .  S
C917       C1369   1.535       .  S
C919        H920   1.112       .  S
C919       C1372   1.538       .  S
C919        C926   1.539       .  S
C921       C1365   1.538   1_545  S
C921        C924   1.369       .  D
C921       C1310   1.446       .  S
C922        C925   1.369       .  D
C922       C1326   1.447       .  S
C923        C926   1.368       .  D
C923       C1340   1.446       .  S
C924       C1367   1.535   1_545  S
C924       C1256   1.447       .  S
C925       C1228   1.446       .  S
C926       C1242   1.449       .  S
C927        H928   1.113       .  S
C927        C933   1.530       .  S
C927        C932   1.528       .  S
C927        C931   1.528       .  S
C929        H930   1.111       .  S
C929        C935   1.542       .  S
C929        C934   1.542       .  S
C929        C936   1.541       .  S
C931        C934   1.368       .  D
C931       C1114   1.442       .  S
C932        C935   1.368       .  D
C932       C1130   1.443       .  S
C933        C936   1.368       .  D
C933       C1100   1.442       .  S
C934       C1144   1.446       .  S
C935       C1158   1.446       .  S
C936       C1172   1.448       .  S
C937        H938   1.113       .  S
C937        C943   1.526       .  S
C937        C942   1.529       .  S
C937        C941   1.528       .  S
C939        H940   1.112       .  S
C939        C945   1.539       .  S
C939        C944   1.540       .  S
C939        C946   1.543       .  S
C941        C944   1.368       .  D
C941       C1030   1.440       .  S
C942        C945   1.367       .  D
C942       C1018   1.442       .  S
C943        C946   1.368       .  D
C943       C1046   1.443       .  S
C944       C1058   1.446       .  S
C945       C1086   1.444       .  S
C946       C1072   1.445       .  S
C947        H948   1.112       .  S
C947        C953   1.537       .  S
C947        C951   1.536       .  S
C949        H950   1.112       .  S
C949        C954   1.538       .  S
C949        C956   1.539       .  S
C951        C954   1.369       .  D
C951       C1060   1.447       .  S
C952        C955   1.369       .  D
C952       C1088   1.445       .  S
C953        C956   1.369       .  D
C953       C1074   1.449       .  S
C954       C1142   1.447       .  S
C955       C1170   1.451       .  S
C956       C1156   1.449       .  S
O957       Ni963   1.925       .  S
O957        C978   1.268       .  A
O958       Ni981   1.905   1_554  S
O958        C967   1.265       .  A
O959      Ni1411   1.914       .  S
C960        O977   1.274       .  A
C960       O1417   1.274   1_545  A
C960       C1044   1.434       .  S
O961       Ni980   1.926       .  S
O961        C967   1.268       .  A
O962       Ni980   1.905   1_556  S
O962        C964   1.266       .  A
Ni963      O1414   1.923   1_545  S
Ni963       O968   1.907       .  S
Ni963      O1407   1.913   1_545  S
C964        O974   1.268       .  A
C964       C1200   1.432       .  S
O965        C971   1.275       .  A
O966      Ni1411   1.921       .  S
O966        C971   1.274       .  A
C967       C1032   1.431       .  S
O968        C970   1.266   1_556  A
O969       Ni980   1.922       .  S
O969       C1408   1.274       .  A
C970       O1424   1.268   1_545  A
C970       C1016   1.433       .  S
C971       C1214   1.434       .  S
H972        O973   0.967       .  S
O973       Ni981   1.916   1_554  S
O973      Ni1423   1.910   1_554  S
O973       Ni980   1.915       .  S
O974      Ni1423   1.923       .  S
Ni975      O1422   1.923   1_545  S
Ni975       O979   1.908       .  S
Ni975       O977   1.920   1_556  S
Ni975      O1421   1.909   1_546  S
O976       C1418   1.268       .  A
C978       C1184   1.431       .  S
O983       Ni989   1.926       .  S
O983       C1004   1.268       .  A
O984      Ni1007   1.906       .  S
O985       Ni989   1.916       .  S
O985      Ni1455   1.909       .  S
O985      Ni1001   1.913       .  S
O985       H1008   0.967       .  S
C986       O1003   1.274       .  A
C986        O995   1.273       .  A
C986       C1298   1.433       .  S
O987      Ni1006   1.922       .  S
O987        C993   1.267       .  A
O988      Ni1006   1.906       .  S
O988        C990   1.266       .  A
Ni989       O992   1.922       .  S
Ni989       O994   1.905       .  S
C990       O1448   1.268   1_545  A
C990       C1102   1.433       .  S
O991      Ni1007   1.919       .  S
O991        C997   1.275       .  A
O992       C1445   1.274       .  A
C993       C1268   1.431       .  S
O994        C996   1.266       .  A
O995      Ni1454   1.920       .  S
C996       O1002   1.268       .  A
C996       C1282   1.432       .  S
C997       O1440   1.274   1_545  A
C997       C1128   1.433       .  S
O999      Ni1454   1.916       .  S
O1000      C1438   1.267       .  A
Ni1001     O1005   1.907       .  S
O1002     Ni1455   1.922       .  S
C1004      O1005   1.265       .  A
C1004      C1116   1.432       .  S
Ni1006     O1443   1.921   1_545  S
Ni1006     O1447   1.914   1_545  S
Ni1007     O1450   1.925   1_545  S
Ni1007     O1433   1.906   1_545  S
C1009      C1017   1.437       .  S
C1009      C1010   1.400       .  A
C1009      C1014   1.401       .  A
C1010      C1011   1.396       .  A
C1010      H1019   1.084       .  S
C1011      C1012   1.400       .  A
C1011      H1020   1.084       .  S
C1012      C1015   1.438       .  S
C1012      C1013   1.402       .  A
C1013      C1014   1.400       .  A
C1013      H1021   1.083       .  S
C1014      H1022   1.083       .  S
C1015      C1016   1.205       .  T
C1017      C1018   1.204       .  T
C1023      C1031   1.437       .  S
C1023      C1024   1.402       .  A
C1023      C1028   1.400       .  A
C1024      C1025   1.397       .  A
C1024      H1033   1.084       .  S
C1025      C1026   1.399       .  A
C1025      H1034   1.084       .  S
C1026      C1029   1.435       .  S
C1026      C1027   1.402       .  A
C1027      C1028   1.398       .  A
C1027      H1035   1.084       .  S
C1028      H1036   1.083       .  S
C1029      C1030   1.203       .  T
C1031      C1032   1.204       .  T
C1037      C1045   1.438       .  S
C1037      C1038   1.402       .  A
C1037      C1042   1.400       .  A
C1038      C1039   1.400       .  A
C1038      H1047   1.084       .  S
C1039      C1040   1.401       .  A
C1039      H1496   1.083       .  S
C1040      C1043   1.439       .  S
C1040      C1041   1.402       .  A
C1041      C1042   1.398       .  A
C1041      H1049   1.084       .  S
C1042      H1050   1.084       .  S
C1043      C1044   1.205       .  T
C1045      C1046   1.204       .  T
H1048      C1487   1.083       .  S
C1051      C1059   1.441       .  S
C1051      C1052   1.401       .  A
C1051      C1056   1.402       .  A
C1052      C1053   1.399       .  A
C1052      H1061   1.083       .  S
C1053      C1054   1.402       .  A
C1053      H1062   1.084       .  S
C1054      C1057   1.442       .  S
C1054      C1055   1.402       .  A
C1055      C1056   1.400       .  A
C1055      H1063   1.083       .  S
C1056      H1064   1.084       .  S
C1057      C1058   1.207       .  T
C1059      C1060   1.207       .  T
C1065      C1073   1.441       .  S
C1065      C1066   1.401       .  A
C1065      C1070   1.402       .  A
C1066      C1067   1.400       .  A
C1066      H1523   1.083       .  S
C1067      C1068   1.403       .  A
C1067      H1076   1.084       .  S
C1068      C1071   1.441       .  S
C1068      C1069   1.401       .  A
C1069      C1070   1.399       .  A
C1069      H1077   1.083       .  S
C1070      H1078   1.083       .  S
C1071      C1072   1.206       .  T
C1073      C1522   1.206       .  T
C1074      C1521   1.208       .  T
H1075      C1514   1.083       .  S
C1079      C1087   1.439       .  S
C1079      C1080   1.402       .  A
C1079      C1084   1.401       .  A
C1080      C1081   1.398       .  A
C1080      H1537   1.083       .  S
C1081      C1082   1.400       .  A
C1081      H1090   1.083       .  S
C1082      C1085   1.439       .  S
C1082      C1083   1.402       .  A
C1083      C1084   1.399       .  A
C1083      H1091   1.084       .  S
C1084      H1092   1.083       .  S
C1085      C1086   1.205       .  T
C1087      C1536   1.205       .  T
C1088      C1535   1.206       .  T
H1089      C1528   1.084       .  S
C1093      C1101   1.438       .  S
C1093      C1094   1.402       .  A
C1093      C1098   1.400       .  A
C1094      C1095   1.399       .  A
C1094      H1103   1.083   1_545  S
C1095      C1096   1.401       .  A
C1095      H1104   1.083       .  S
C1096      C1099   1.437       .  S
C1096      C1097   1.401       .  A
C1097      C1098   1.397       .  A
C1097      H1105   1.084       .  S
C1098      H1106   1.084       .  S
C1099      C1100   1.204       .  T
C1101      C1102   1.205       .  T
C1107      C1115   1.438       .  S
C1107      C1108   1.402       .  A
C1107      C1112   1.401       .  A
C1108      C1109   1.398       .  A
C1108      H1117   1.083       .  S
C1109      C1110   1.400       .  A
C1109      H1118   1.084       .  S
C1110      C1113   1.437       .  S
C1110      C1111   1.402       .  A
C1111      C1112   1.398       .  A
C1111      H1119   1.084       .  S
C1112      H1120   1.083       .  S
C1113      C1114   1.204       .  T
C1115      C1116   1.205       .  T
C1121      C1129   1.438       .  S
C1121      C1122   1.400       .  A
C1121      C1126   1.402       .  A
C1122      C1123   1.399       .  A
C1122      H1131   1.084       .  S
C1123      C1124   1.402       .  A
C1123      H1132   1.084       .  S
C1124      C1127   1.439       .  S
C1124      C1125   1.400       .  A
C1125      C1126   1.398       .  A
C1125      H1133   1.083       .  S
C1126      H1134   1.084       .  S
C1127      C1128   1.205       .  T
C1129      C1130   1.205       .  T
C1135      C1143   1.441       .  S
C1135      C1136   1.402       .  A
C1135      C1140   1.401       .  A
C1136      C1137   1.399       .  A
C1136      H1145   1.084       .  S
C1137      C1138   1.401       .  A
C1137      H1146   1.083       .  S
C1138      C1141   1.441       .  S
C1138      C1139   1.403       .  A
C1139      C1140   1.400       .  A
C1139      H1147   1.083       .  S
C1140      H1148   1.083       .  S
C1141      C1142   1.207       .  T
C1143      C1144   1.207       .  T
C1149      C1157   1.441       .  S
C1149      C1150   1.401       .  A
C1149      C1154   1.402       .  A
C1150      C1151   1.400       .  A
C1150      H1159   1.083       .  S
C1151      C1152   1.403       .  A
C1151      H1160   1.084       .  S
C1152      C1155   1.441       .  S
C1152      C1153   1.401       .  A
C1153      C1154   1.399       .  A
C1153      H1161   1.083       .  S
C1154      H1162   1.084       .  S
C1155      C1604   1.207       .  T
C1156      C1603   1.208       .  T
C1157      C1158   1.207       .  T
C1163      C1171   1.444       .  S
C1163      C1164   1.403       .  A
C1163      C1168   1.401       .  A
C1164      C1165   1.401       .  A
C1164      H1173   1.084       .  S
C1165      C1166   1.402       .  A
C1165      H1622   1.083       .  S
C1166      C1169   1.444       .  S
C1166      C1167   1.402       .  A
C1167      C1168   1.400       .  A
C1167      H1175   1.083       .  S
C1168      H1176   1.083       .  S
C1169      C1618   1.208       .  T
C1170      C1617   1.209       .  T
C1171      C1172   1.208       .  T
H1174      C1613   1.083       .  S
C1177      C1185   1.436       .  S
C1177      C1178   1.399       .  A
C1177      C1182   1.402       .  A
C1178      C1179   1.397       .  A
C1178      H1187   1.083       .  S
C1179      C1180   1.401       .  A
C1179      H1188   1.084       .  S
C1180      C1183   1.437       .  S
C1180      C1181   1.400       .  A
C1181      C1182   1.399       .  A
C1181      H1189   1.083       .  S
C1182      H1190   1.084       .  S
C1183      C1184   1.204       .  T
C1185      C1186   1.204       .  T
C1191      C1199   1.437       .  S
C1191      C1192   1.401       .  A
C1191      C1196   1.401       .  A
C1192      C1193   1.397       .  A
C1192      H1201   1.084       .  S
C1193      C1194   1.400       .  A
C1193      H1202   1.084       .  S
C1194      C1197   1.437       .  S
C1194      C1195   1.401       .  A
C1195      C1196   1.399       .  A
C1195      H1203   1.083       .  S
C1196      H1204   1.083       .  S
C1197      C1198   1.204       .  T
C1199      C1200   1.204       .  T
C1205      C1213   1.439       .  S
C1205      C1206   1.402       .  A
C1205      C1210   1.400       .  A
C1206      C1207   1.398       .  A
C1206      H1215   1.084       .  S
C1207      C1208   1.400       .  A
C1207      H1216   1.084       .  S
C1208      C1211   1.437       .  S
C1208      C1209   1.402       .  A
C1209      C1210   1.399       .  A
C1209      H1217   1.084       .  S
C1210      H1218   1.083       .  S
C1211      C1212   1.204       .  T
C1213      C1214   1.205       .  T
C1219      C1227   1.440       .  S
C1219      C1220   1.402       .  A
C1219      C1224   1.401       .  A
C1220      C1221   1.399       .  A
C1220      H1229   1.083       .  S
C1221      C1222   1.401       .  A
C1221      H1230   1.083       .  S
C1222      C1225   1.441       .  S
C1222      C1223   1.402       .  A
C1223      C1224   1.400       .  A
C1223      H1231   1.084       .  S
C1224      H1232   1.083       .  S
C1225      C1226   1.207       .  T
C1227      C1228   1.206       .  T
C1233      C1241   1.444       .  S
C1233      C1234   1.403       .  A
C1233      C1238   1.401       .  A
C1234      C1235   1.401       .  A
C1234      H1243   1.084       .  S
C1235      C1236   1.402       .  A
C1235      H1244   1.083       .  S
C1236      C1239   1.443       .  S
C1236      C1237   1.402       .  A
C1237      C1238   1.400       .  A
C1237      H1245   1.084       .  S
C1238      H1246   1.083       .  S
C1239      C1240   1.208       .  T
C1241      C1242   1.208       .  T
C1247      C1255   1.441       .  S
C1247      C1248   1.401       .  A
C1247      C1252   1.402       .  A
C1248      C1249   1.400       .  A
C1248      H1257   1.083       .  S
C1249      C1250   1.403       .  A
C1249      H1258   1.083       .  S
C1250      C1253   1.441       .  S
C1250      C1251   1.400       .  A
C1251      C1252   1.399       .  A
C1251      H1259   1.083       .  S
C1252      H1260   1.082       .  S
C1253      C1254   1.206       .  T
C1255      C1256   1.206       .  T
C1261      C1269   1.436       .  S
C1261      C1262   1.402       .  A
C1261      C1266   1.399       .  A
C1262      C1263   1.398       .  A
C1262      H1271   1.084       .  S
C1263      C1264   1.400       .  A
C1263      H1272   1.083       .  S
C1264      C1267   1.436       .  S
C1264      C1265   1.402       .  A
C1265      C1266   1.397       .  A
C1265      H1273   1.084       .  S
C1266      H1274   1.084       .  S
C1267      C1268   1.204       .  T
C1269      C1270   1.203       .  T
C1275      C1283   1.436       .  S
C1275      C1276   1.400       .  A
C1275      C1280   1.401       .  A
C1276      C1277   1.396       .  A
C1276      H1285   1.084       .  S
C1277      C1278   1.400       .  A
C1277      H1286   1.084       .  S
C1278      C1281   1.437       .  S
C1278      C1279   1.402       .  A
C1279      C1280   1.399       .  A
C1279      H1287   1.083       .  S
C1280      H1288   1.084       .  S
C1281      C1282   1.204       .  T
C1283      C1284   1.203       .  T
C1289      C1297   1.438       .  S
C1289      C1290   1.401       .  A
C1289      C1294   1.402       .  A
C1290      C1291   1.398       .  A
C1290      H1299   1.083       .  S
C1291      C1292   1.401       .  A
C1291      H1300   1.084       .  S
C1292      C1295   1.438       .  S
C1292      C1293   1.401       .  A
C1293      C1294   1.399       .  A
C1293      H1301   1.084       .  S
C1294      H1302   1.083       .  S
C1295      C1296   1.205       .  T
C1297      C1298   1.205       .  T
C1303      C1311   1.440       .  S
C1303      C1304   1.401       .  A
C1303      C1308   1.402       .  A
C1304      C1305   1.399       .  A
C1304      H1313   1.083       .  S
C1305      C1306   1.402       .  A
C1305      H1314   1.084       .  S
C1306      C1309   1.441       .  S
C1306      C1307   1.401       .  A
C1307      C1308   1.399       .  A
C1307      H1315   1.083       .  S
C1308      H1316   1.084       .  S
C1309      C1310   1.206       .  T
C1311      C1312   1.206       .  T
C1317      C1325   1.442       .  S
C1317      C1318   1.403       .  A
C1317      C1322   1.401       .  A
C1318      C1319   1.400       .  A
C1318      H1327   1.084       .  S
C1319      C1320   1.401       .  A
C1319      H1328   1.083       .  S
C1320      C1323   1.442       .  S
C1320      C1321   1.402       .  A
C1321      C1322   1.400       .  A
C1321      H1329   1.084       .  S
C1322      H1330   1.083       .  S
C1323      C1324   1.207       .  T
C1325      C1326   1.207       .  T
C1331      C1339   1.440       .  S
C1331      C1332   1.402       .  A
C1331      C1336   1.401       .  A
C1332      C1333   1.400       .  A
C1332      H1341   1.083       .  S
C1333      C1334   1.402       .  A
C1333      H1342   1.083       .  S
C1334      C1337   1.440       .  S
C1334      C1335   1.401       .  A
C1335      C1336   1.398       .  A
C1335      H1343   1.083       .  S
C1336      H1344   1.083       .  S
C1337      C1338   1.206       .  T
C1339      C1340   1.206       .  T
C1345      H1346   1.113       .  S
C1345      C1351   1.527       .  S
C1345      C1350   1.530       .  S
C1345      C1349   1.528       .  S
C1347      H1348   1.111       .  S
C1347      C1353   1.542       .  S
C1347      C1352   1.541       .  S
C1347      C1354   1.543       .  S
C1349      C1352   1.368       .  D
C1349      C1718   1.442       .  S
C1350      C1353   1.368       .  D
C1350      C1732   1.444       .  S
C1351      C1354   1.368       .  D
C1351      C1744   1.442       .  S
C1352      C1760   1.444       .  S
C1353      C1772   1.448       .  S
C1354      C1786   1.447       .  S
C1355      H1356   1.113       .  S
C1355      C1361   1.529       .  S
C1355      C1360   1.527       .  S
C1355      C1359   1.527       .  S
C1357      H1358   1.112       .  S
C1357      C1363   1.543       .  S
C1357      C1362   1.541       .  S
C1357      C1364   1.540       .  S
C1359      C1362   1.368       .  D
C1359      C1634   1.439       .  S
C1360      C1363   1.368       .  D
C1360      C1660   1.444       .  S
C1361      C1364   1.368       .  D
C1361      C1646   1.443       .  S
C1362      C1702   1.445       .  S
C1363      C1688   1.446       .  S
C1364      C1674   1.445       .  S
C1365      H1366   1.112       .  S
C1365      C1371   1.538       .  S
C1367      H1368   1.112       .  S
C1367      C1374   1.535       .  S
C1369      C1372   1.369       .  D
C1369      C1758   1.445       .  S
C1370      C1373   1.369       .  D
C1370      C1774   1.449       .  S
C1371      C1374   1.368       .  D
C1371      C1788   1.447       .  S
C1372      C1704   1.447       .  S
C1373      C1676   1.445       .  S
C1374      C1690   1.447       .  S
C1375      H1376   1.113       .  S
C1375      C1381   1.528       .  S
C1375      C1380   1.526       .  S
C1375      C1379   1.528       .  S
C1377      H1378   1.111       .  S
C1377      C1383   1.544       .  S
C1377      C1382   1.542       .  S
C1377      C1384   1.542       .  S
C1379      C1382   1.368       .  D
C1379      C1562   1.442       .  S
C1380      C1383   1.368       .  D
C1380      C1578   1.442       .  S
C1381      C1384   1.367       .  D
C1381      C1548   1.440       .  S
C1382      C1592   1.445       .  S
C1383      C1606   1.447       .  S
C1384      C1620   1.449       .  S
C1385      H1386   1.113       .  S
C1385      C1391   1.526       .  S
C1385      C1390   1.529       .  S
C1385      C1389   1.527       .  S
C1387      H1388   1.112       .  S
C1387      C1393   1.539       .  S
C1387      C1392   1.541       .  S
C1387      C1394   1.544       .  S
C1389      C1392   1.368       .  D
C1389      C1478   1.440       .  S
C1390      C1393   1.367       .  D
C1390      C1466   1.441       .  S
C1391      C1394   1.369       .  D
C1391      C1494   1.444       .  S
C1392      C1506   1.445       .  S
C1393      C1534   1.445       .  S
C1394      C1520   1.447       .  S
C1395      H1396   1.112       .  S
C1395      C1401   1.535       .  S
C1395      C1399   1.535       .  S
C1397      H1398   1.112       .  S
C1397      C1402   1.536       .  S
C1397      C1404   1.538       .  S
C1399      C1402   1.368       .  D
C1399      C1508   1.445       .  S
C1400      C1403   1.369       .  D
C1400      C1536   1.445   1_565  S
C1401      C1404   1.368       .  D
C1401      C1522   1.447   1_565  S
C1402      C1590   1.445       .  S
C1403      C1618   1.450   1_565  S
C1404      C1604   1.447   1_565  S
O1405     Ni1411   1.924       .  S
O1405      C1426   1.267       .  A
O1406     Ni1429   1.907   1_554  S
O1406      C1415   1.265       .  A
C1408      O1425   1.275       .  A
C1408      C1492   1.436       .  S
O1409     Ni1428   1.924       .  S
O1409      C1415   1.267       .  A
O1410     Ni1428   1.906   1_556  S
O1410      C1412   1.266       .  A
Ni1411     O1416   1.906       .  S
C1412      O1422   1.268       .  A
C1412      C1648   1.433       .  S
O1413      C1419   1.275       .  A
O1414      C1419   1.275       .  A
C1415      C1480   1.431       .  S
O1416      C1418   1.266   1_556  A
O1417     Ni1428   1.920       .  S
C1418      C1464   1.433       .  S
C1419      C1662   1.435       .  S
H1420      O1421   0.967       .  S
O1421     Ni1429   1.916   1_554  S
O1421     Ni1428   1.914       .  S
Ni1423     O1427   1.907       .  S
Ni1423     O1425   1.920   1_556  S
C1426      C1632   1.431       .  S
O1431     Ni1437   1.924       .  S
O1431      C1452   1.267       .  A
O1432     Ni1455   1.908       .  S
O1433     Ni1437   1.912       .  S
O1433     Ni1449   1.913       .  S
O1433      H1456   0.966       .  S
C1434      O1451   1.274       .  A
C1434      O1443   1.274       .  A
C1434      C1746   1.432       .  S
O1435     Ni1454   1.924       .  S
O1435      C1441   1.267       .  A
O1436     Ni1454   1.906       .  S
O1436      C1438   1.266       .  A
Ni1437     O1440   1.921       .  S
Ni1437     O1442   1.907       .  S
C1438      C1550   1.431       .  S
O1439     Ni1455   1.914       .  S
O1439      C1445   1.273       .  A
C1441      C1716   1.432       .  S
O1442      C1444   1.266       .  A
C1444      O1450   1.268       .  A
C1444      C1730   1.436       .  S
C1445      C1576   1.432       .  S
Ni1449     O1453   1.905       .  S
C1452      O1453   1.264       .  A
C1452      C1564   1.430       .  S
C1457      C1465   1.436       .  S
C1457      C1458   1.401       .  A
C1457      C1462   1.401       .  A
C1458      C1459   1.397       .  A
C1458      H1467   1.084       .  S
C1459      C1460   1.400       .  A
C1459      H1468   1.084       .  S
C1460      C1463   1.438       .  S
C1460      C1461   1.402       .  A
C1461      C1462   1.399       .  A
C1461      H1469   1.083       .  S
C1462      H1470   1.084       .  S
C1463      C1464   1.205       .  T
C1465      C1466   1.204       .  T
C1471      C1479   1.436       .  S
C1471      C1472   1.401       .  A
C1471      C1476   1.400       .  A
C1472      C1473   1.397       .  A
C1472      H1481   1.083       .  S
C1473      C1474   1.400       .  A
C1473      H1482   1.084       .  S
C1474      C1477   1.436       .  S
C1474      C1475   1.402       .  A
C1475      C1476   1.398       .  A
C1475      H1483   1.084       .  S
C1476      H1484   1.083       .  S
C1477      C1478   1.203       .  T
C1479      C1480   1.204       .  T
C1485      C1493   1.439       .  S
C1485      C1486   1.400       .  A
C1485      C1490   1.403       .  A
C1486      C1487   1.399       .  A
C1486      H1495   1.084       .  S
C1487      C1488   1.402       .  A
C1488      C1491   1.441       .  S
C1488      C1489   1.401       .  A
C1489      C1490   1.400       .  A
C1489      H1497   1.083       .  S
C1490      H1498   1.084       .  S
C1491      C1492   1.206       .  T
C1493      C1494   1.205       .  T
C1499      C1507   1.439       .  S
C1499      C1500   1.400       .  A
C1499      C1504   1.402       .  A
C1500      C1501   1.399       .  A
C1500      H1509   1.083       .  S
C1501      C1502   1.402       .  A
C1501      H1510   1.084       .  S
C1502      C1505   1.440       .  S
C1502      C1503   1.401       .  A
C1503      C1504   1.399       .  A
C1503      H1511   1.083       .  S
C1504      H1512   1.084       .  S
C1505      C1506   1.206       .  T
C1507      C1508   1.205       .  T
C1513      C1521   1.443       .  S
C1513      C1514   1.401       .  A
C1513      C1518   1.403       .  A
C1514      C1515   1.400       .  A
C1515      C1516   1.402       .  A
C1515      H1524   1.084       .  S
C1516      C1519   1.443       .  S
C1516      C1517   1.401       .  A
C1517      C1518   1.400       .  A
C1517      H1525   1.083       .  S
C1518      H1526   1.084       .  S
C1519      C1520   1.207       .  T
C1527      C1535   1.439       .  S
C1527      C1528   1.402       .  A
C1527      C1532   1.401       .  A
C1528      C1529   1.399       .  A
C1529      C1530   1.401       .  A
C1529      H1538   1.083       .  S
C1530      C1533   1.440       .  S
C1530      C1531   1.402       .  A
C1531      C1532   1.399       .  A
C1531      H1539   1.084       .  S
C1532      H1540   1.083       .  S
C1533      C1534   1.206       .  T
C1541      C1549   1.436       .  S
C1541      C1542   1.402       .  A
C1541      C1546   1.399       .  A
C1542      C1543   1.400       .  A
C1542      H1551   1.083       .  S
C1543      C1544   1.401       .  A
C1543      H1552   1.083       .  S
C1544      C1547   1.435       .  S
C1544      C1545   1.400       .  A
C1545      C1546   1.395       .  A
C1545      H1553   1.084       .  S
C1546      H1554   1.084       .  S
C1547      C1548   1.203       .  T
C1549      C1550   1.204       .  T
C1555      C1563   1.436       .  S
C1555      C1556   1.401       .  A
C1555      C1560   1.400       .  A
C1556      C1557   1.398       .  A
C1556      H1565   1.083       .  S
C1557      C1558   1.400       .  A
C1557      H1566   1.083       .  S
C1558      C1561   1.436       .  S
C1558      C1559   1.401       .  A
C1559      C1560   1.398       .  A
C1559      H1567   1.084       .  S
C1560      H1568   1.084       .  S
C1561      C1562   1.204       .  T
C1563      C1564   1.203       .  T
C1569      C1577   1.436       .  S
C1569      C1570   1.400       .  A
C1569      C1574   1.401       .  A
C1570      C1571   1.398       .  A
C1570      H1579   1.083       .  S
C1571      C1572   1.402       .  A
C1571      H1580   1.084       .  S
C1572      C1575   1.437       .  S
C1572      C1573   1.400       .  A
C1573      C1574   1.398       .  A
C1573      H1581   1.083       .  S
C1574      H1582   1.084       .  S
C1575      C1576   1.204       .  T
C1577      C1578   1.204       .  T
C1583      C1591   1.440       .  S
C1583      C1584   1.402       .  A
C1583      C1588   1.401       .  A
C1584      C1585   1.399       .  A
C1584      H1593   1.084       .  S
C1585      C1586   1.400       .  A
C1585      H1594   1.083       .  S
C1586      C1589   1.440       .  S
C1586      C1587   1.402       .  A
C1587      C1588   1.399       .  A
C1587      H1595   1.083       .  S
C1588      H1596   1.083       .  S
C1589      C1590   1.206       .  T
C1591      C1592   1.206       .  T
C1597      C1605   1.443       .  S
C1597      C1598   1.401       .  A
C1597      C1602   1.403       .  A
C1598      C1599   1.401       .  A
C1598      H1607   1.083       .  S
C1599      C1600   1.403       .  A
C1599      H1608   1.084       .  S
C1600      C1603   1.443       .  S
C1600      C1601   1.401       .  A
C1601      C1602   1.400       .  A
C1601      H1609   1.083       .  S
C1602      H1610   1.083       .  S
C1605      C1606   1.208       .  T
C1611      C1619   1.444       .  S
C1611      C1612   1.403       .  A
C1611      C1616   1.401       .  A
C1612      C1613   1.401       .  A
C1612      H1621   1.083       .  S
C1613      C1614   1.402       .  A
C1614      C1617   1.445       .  S
C1614      C1615   1.403       .  A
C1615      C1616   1.401       .  A
C1615      H1623   1.083       .  S
C1616      H1624   1.083       .  S
C1619      C1620   1.208       .  T
C1625      C1633   1.435       .  S
C1625      C1626   1.401       .  A
C1625      C1630   1.399       .  A
C1626      C1627   1.398       .  A
C1626      H1635   1.084       .  S
C1627      C1628   1.400       .  A
C1627      H1636   1.083       .  S
C1628      C1631   1.436       .  S
C1628      C1629   1.402       .  A
C1629      C1630   1.397       .  A
C1629      H1637   1.083       .  S
C1630      H1638   1.084       .  S
C1631      C1632   1.204       .  T
C1633      C1634   1.202       .  T
C1639      C1647   1.439       .  S
C1639      C1640   1.401       .  A
C1639      C1644   1.401       .  A
C1640      C1641   1.399       .  A
C1640      H1649   1.083       .  S
C1641      C1642   1.401       .  A
C1641      H1650   1.083       .  S
C1642      C1645   1.438       .  S
C1642      C1643   1.401       .  A
C1643      C1644   1.398       .  A
C1643      H1651   1.084       .  S
C1644      H1652   1.084       .  S
C1645      C1646   1.205       .  T
C1647      C1648   1.205       .  T
C1653      C1661   1.440       .  S
C1653      C1654   1.403       .  A
C1653      C1658   1.400       .  A
C1654      C1655   1.399       .  A
C1654      H1663   1.084       .  S
C1655      C1656   1.400       .  A
C1655      H1664   1.084       .  S
C1656      C1659   1.438       .  S
C1656      C1657   1.402       .  A
C1657      C1658   1.399       .  A
C1657      H1665   1.084       .  S
C1658      H1666   1.083       .  S
C1659      C1660   1.205       .  T
C1661      C1662   1.206       .  T
C1667      C1675   1.439       .  S
C1667      C1668   1.402       .  A
C1667      C1672   1.400       .  A
C1668      C1669   1.399       .  A
C1668      H1677   1.083       .  S
C1669      C1670   1.401       .  A
C1669      H1678   1.083       .  S
C1670      C1673   1.440       .  S
C1670      C1671   1.402       .  A
C1671      C1672   1.399       .  A
C1671      H1679   1.084       .  S
C1672      H1680   1.083       .  S
C1673      C1674   1.206       .  T
C1675      C1676   1.205       .  T
C1681      C1689   1.441       .  S
C1681      C1682   1.401       .  A
C1681      C1686   1.402       .  A
C1682      C1683   1.400       .  A
C1682      H1691   1.083       .  S
C1683      C1684   1.402       .  A
C1683      H1692   1.084       .  S
C1684      C1687   1.441       .  S
C1684      C1685   1.401       .  A
C1685      C1686   1.399       .  A
C1685      H1693   1.083       .  S
C1686      H1694   1.084       .  S
C1687      C1688   1.207       .  T
C1689      C1690   1.207       .  T
C1695      C1703   1.441       .  S
C1695      C1696   1.402       .  A
C1695      C1700   1.401       .  A
C1696      C1697   1.400       .  A
C1696      H1705   1.084       .  S
C1697      C1698   1.401       .  A
C1697      H1706   1.083       .  S
C1698      C1701   1.441       .  S
C1698      C1699   1.402       .  A
C1699      C1700   1.399       .  A
C1699      H1707   1.084       .  S
C1700      H1708   1.083       .  S
C1701      C1702   1.207       .  T
C1703      C1704   1.207       .  T
C1709      C1717   1.437       .  S
C1709      C1710   1.400       .  A
C1709      C1714   1.401       .  A
C1710      C1711   1.397       .  A
C1710      H1719   1.084       .  S
C1711      C1712   1.401       .  A
C1711      H1720   1.084       .  S
C1712      C1715   1.437       .  S
C1712      C1713   1.401       .  A
C1713      C1714   1.399       .  A
C1713      H1721   1.083       .  S
C1714      H1722   1.083       .  S
C1715      C1716   1.204       .  T
C1717      C1718   1.204       .  T
C1723      C1731   1.439       .  S
C1723      C1724   1.401       .  A
C1723      C1728   1.401       .  A
C1724      C1725   1.398       .  A
C1724      H1733   1.084       .  S
C1725      C1726   1.401       .  A
C1725      H1734   1.084       .  S
C1726      C1729   1.440       .  S
C1726      C1727   1.402       .  A
C1727      C1728   1.400       .  A
C1727      H1735   1.083       .  S
C1728      H1736   1.084       .  S
C1729      C1730   1.206       .  T
C1731      C1732   1.205       .  T
C1737      C1745   1.437       .  S
C1737      C1738   1.400       .  A
C1737      C1742   1.402       .  A
C1738      C1739   1.398       .  A
C1738      H1747   1.083       .  S
C1739      C1740   1.402       .  A
C1739      H1748   1.084       .  S
C1740      C1743   1.437       .  S
C1740      C1741   1.400       .  A
C1741      C1742   1.398       .  A
C1741      H1749   1.083       .  S
C1742      H1750   1.084       .  S
C1743      C1744   1.204       .  T
C1745      C1746   1.204       .  T
C1751      C1759   1.440       .  S
C1751      C1752   1.401       .  A
C1751      C1756   1.402       .  A
C1752      C1753   1.399       .  A
C1752      H1761   1.083       .  S
C1753      C1754   1.402       .  A
C1753      H1762   1.083       .  S
C1754      C1757   1.440       .  S
C1754      C1755   1.401       .  A
C1755      C1756   1.400       .  A
C1755      H1763   1.083       .  S
C1756      H1764   1.084       .  S
C1757      C1758   1.206       .  T
C1759      C1760   1.206       .  T
C1765      C1773   1.444       .  S
C1765      C1766   1.403       .  A
C1765      C1770   1.401       .  A
C1766      C1767   1.400       .  A
C1766      H1775   1.083       .  S
C1767      C1768   1.401       .  A
C1767      H1776   1.083       .  S
C1768      C1771   1.443       .  S
C1768      C1769   1.403       .  A
C1769      C1770   1.401       .  A
C1769      H1777   1.084       .  S
C1770      H1778   1.083       .  S
C1771      C1772   1.208       .  T
C1773      C1774   1.208       .  T
C1779      C1787   1.442       .  S
C1779      C1780   1.403       .  A
C1779      C1784   1.400       .  A
C1780      C1781   1.400       .  A
C1780      H1789   1.083       .  S
C1781      C1782   1.401       .  A
C1781      H1790   1.083       .  S
C1782      C1785   1.442       .  S
C1782      C1783   1.402       .  A
C1783      C1784   1.399       .  A
C1783      H1791   1.083       .  S
C1784      H1792   1.083       .  S
C1785      C1786   1.207       .  T
C1787      C1788   1.207       .  T
