geometry optimzed in LAMMPS
_audit_creation_date              2020-11-30 
_audit_creation_method            'lammps2cif' 
_symmetry_space_group_name_H-M    'P1' 
_symmetry_Int_Tables_number       1 
_symmetry_cell_setting            triclinic 
loop_ 
_symmetry_equiv_pos_as_xyz 
  x,y,z 
_cell_length_a                    48.58881458 
_cell_length_b                    47.37742667480573 
_cell_length_c                    34.573911172359786 
_cell_angle_alpha                 89.46227362218039 
_cell_angle_beta                  91.3066213269726 
_cell_angle_gamma                 118.13023081238468 
loop_ 
_atom_site_label 
_atom_site_type_symbol 
_atom_site_fract_x 
_atom_site_fract_y 
_atom_site_fract_z 
_atom_site_charge 
O1          O  0.16838092  0.06780535  0.76186950    -0.79900
O2          O  0.12995677  0.02984501  0.58998686    -0.64500
O3          O  0.16347370  0.03807698  0.69270946    -1.11200
C4          C  0.22665173  0.14223412  0.64690103     1.07000
O5          O  0.17725509  0.04619324  0.56761531    -0.77800
O6          O  0.23427280  0.08306648  0.60707363    -0.65300
Ni7        Ni  0.13685212  0.03110448  0.73572483     1.34900
C8          C  0.24308338  0.07576964  0.63889218     0.85800
O9          O  0.11575097  0.49191826  0.64984511    -0.78300
O10         O  0.10412560  0.49362827  0.71206149    -0.88600
C11         C  0.14755619  0.02978893  0.56338933     0.85300
O12         O  0.11753563  0.05648150  0.71808433    -0.66800
O13         O  0.21849689  0.13076408  0.61264921    -0.86100
C14         C  0.10639601  0.05818725  0.68497801     0.86200
C15         C  0.09934386  0.47956510  0.67939746     1.07700
H16         H  0.16458663  0.08994598  0.63783067     0.39500
O17         O  0.17498576  0.07689540  0.63712270    -1.08700
O18         O  0.22657458  0.06926638  0.66919678    -0.65400
Ni19       Ni  0.19540405  0.08128036  0.68612530     1.26300
O20         O  0.11341635  0.04775578  0.65467748    -0.65600
O21         O  0.22362864  0.12530843  0.67722481    -0.77900
C22         C  0.19585339  0.07148302  0.76587772     0.85600
O23         O  0.21368305  0.08208657  0.73701630    -0.65100
Ni24       Ni  0.19849680  0.08849269  0.59152994     1.27400
Ni25       Ni  0.14471925  0.03385539  0.64252151     1.26100
H26         H  0.17268503  0.02394452  0.69479265     0.40100
O27         O  0.24982848  0.99805534  0.10263092    -0.79900
O28         O  0.24926932  0.03702505  0.92835496    -0.64500
O29         O  0.22757056  0.00817918  0.03252613    -1.11200
C30         C  0.24213497  0.42166528  0.98435538     1.07000
O31         O  0.21328179  0.49042296  0.90952084    -0.77800
O32         O  0.18787884  0.43094660  0.94734109    -0.65300
Ni33       Ni  0.25034405  0.03415934  0.07586431     1.34900
C34         C  0.17376230  0.42468358  0.97936397     0.85800
O35         O  0.23707816  0.06287503  0.99051469    -0.78300
O36         O  0.25151982  0.07188233  0.05340004    -0.88600
C37         C  0.22848581  0.01937412  0.90353240     0.85300
O38         O  0.29225892  0.04814580  0.05779203    -0.66800
O39         O  0.24405291  0.43433453  0.95091939    -0.86100
C40         C  0.30386555  0.05971798  0.02490940     0.86200
C41         C  0.24611070  0.08082195  0.02046490     1.07700
H42         H  0.26799431  0.49380712  0.97718704     0.39500
O43         O  0.24595886  0.48750527  0.97664533    -1.08700
O44         O  0.18578976  0.44327763  0.00869989    -0.65400
Ni45       Ni  0.22987387  0.46833450  0.02521935     1.26300
O46         O  0.28651566  0.05187345  0.99400990    -0.65600
O47         O  0.23480925  0.43129573  0.01506652    -0.77900
C48         C  0.22518985  0.46999434  0.10551905     0.85600
O49         O  0.21399589  0.45239117  0.07575564    -0.65100
Ni50       Ni  0.22892731  0.46261602  0.93138885     1.27400
Ni51       Ni  0.24122844  0.02519506  0.98206936     1.26100
H52         H  0.20594063  0.00315600  0.03472490     0.40100
O53         O  0.09599172  0.41972640  0.43097054    -0.79900
O54         O  0.14039799  0.41873566  0.26329862    -0.64500
O55         O  0.12798327  0.44196045  0.36455232    -1.11200
C56         C  0.03018109  0.42146328  0.30531720     1.07000
O57         O  0.12800379  0.45494668  0.23964985    -0.77800
O58         O  0.09201940  0.47929177  0.27391823    -0.65300
Ni59       Ni  0.13166597  0.41967109  0.40921845     1.34900
C60         C  0.09783581  0.49351494  0.30640277     0.85800
O61         O  0.17498666  0.43348046  0.32871696    -0.78300
O62         O  0.16812836  0.41833254  0.39095800    -0.88600
C63         C  0.14334498  0.43925950  0.23746219     0.85300
O64         O  0.10546105  0.37739105  0.38981200    -0.66800
O65         O  0.04271816  0.42140208  0.27308418    -0.86100
C66         C  0.10469563  0.36519549  0.35693023     0.86200
C67         C  0.18350900  0.42475857  0.35980707     1.07700
H68         H  0.07899404  0.39897321  0.30405896     0.39500
O69         O  0.09300525  0.42172666  0.30471068    -1.08700
O70         O  0.10298398  0.48132782  0.33694817    -0.65400
Ni71       Ni  0.08673609  0.43700696  0.35260073     1.26300
O72         O  0.11676896  0.38252532  0.32713322    -0.65600
O73         O  0.04493824  0.42902844  0.33808026    -0.77900
C74         C  0.09335586  0.44501900  0.43245224     0.85600
O75         O  0.08390516  0.45363432  0.40234878    -0.65100
Ni76       Ni  0.08534251  0.43785004  0.25776614     1.27400
Ni77       Ni  0.13422394  0.42807740  0.31537679     1.26100
H78         H  0.14257750  0.46441184  0.36763316     0.40100
O79         O  0.38809414  0.33470183  0.55452016    -0.79900
O80         O  0.35924816  0.28708595  0.72938710    -0.64500
O81         O  0.37407485  0.33016089  0.63276887    -1.11200
C82         C  0.47884720  0.37496893  0.67755617     1.07000
O83         O  0.38840322  0.33223320  0.76060917    -0.77800
O84         O  0.42429397  0.38679420  0.72391944    -0.65300
Ni85       Ni  0.35747908  0.30367197  0.58798094     1.34900
C86         C  0.42180172  0.39918938  0.69239137     0.85800
O87         O  0.32270629  0.28953334  0.67312612    -0.78300
O88         O  0.32281646  0.27060697  0.61469897    -0.88600
C89         C  0.36540255  0.30423100  0.75934244     0.85300
O90         O  0.38342585  0.28419438  0.59907052    -0.66800
O91         O  0.46797468  0.36783886  0.71161211    -0.86100
C92         C  0.38223037  0.26865771  0.62980641     0.86200
C93         C  0.30910858  0.27019568  0.64580697     1.07700
H94         H  0.41707987  0.31100529  0.68474938     0.39500
O95         O  0.40992817  0.32680916  0.68658677    -1.08700
O96         O  0.41864666  0.38634826  0.65964942    -0.65400
Ni97       Ni  0.41831159  0.34941146  0.63893406     1.26300
O98         O  0.36799588  0.27049818  0.65958655    -0.65600
O99         O  0.46203563  0.36792615  0.64679632    -0.77900
C100        C  0.41016904  0.36292040  0.55970439     0.85600
O101        O  0.42510036  0.37247967  0.59152419    -0.65100
Ni102      Ni  0.42750457  0.34898644  0.73399440     1.27400
Ni103      Ni  0.36623071  0.30768943  0.68052817     1.26100
H104        H  0.36666976  0.34584675  0.63342897     0.40100
O105        O  0.30188747  0.27399349  0.10373157    -0.79900
O106        O  0.30307131  0.25616130  0.92204221    -0.64500
O107        O  0.30045912  0.28342025  0.02434554    -1.11200
C108        C  0.19304850  0.22265678  0.00659423     1.07000
O109        O  0.26530676  0.26513337  0.89859682    -0.77800
O110        O  0.24564855  0.29134249  0.95168911    -0.65300
Ni111      Ni  0.32703188  0.27682698  0.06097710     1.34900
C112        C  0.24806639  0.30363013  0.98476631     0.85800
O113        O  0.34513382  0.29812458  0.96914238    -0.78300
O114        O  0.35717020  0.28121430  0.02369948    -0.88600
C115        C  0.29006408  0.26291006  0.89424954     0.85300
O116        O  0.30351175  0.23189173  0.05278751    -0.66800
O117        O  0.19912130  0.23199869  0.97166963    -0.86100
C118        C  0.29971033  0.21796779  0.02037955     0.86200
C119        C  0.36431468  0.29447430  0.99075779     1.07700
H120        H  0.25397431  0.22055347  0.97666872     0.39500
O121        O  0.25894704  0.24283981  0.97713992    -1.08700
O122        O  0.24857204  0.28969985  0.01608612    -0.65400
Ni123      Ni  0.25679204  0.25496484  0.02936863     1.26300
O124        O  0.30831239  0.23385275  0.98901405    -0.65600
O125        O  0.21352020  0.22665624  0.03240523    -0.77900
C126        C  0.27567046  0.27289134  0.10881095     0.85600
O127        O  0.25570326  0.26730111  0.08170430    -0.65100
Ni128      Ni  0.23374626  0.24847423  0.93778457     1.27400
Ni129      Ni  0.30213306  0.26991248  0.97291419     1.26100
H130        H  0.30504019  0.30540755  0.02449471     0.40100
O131        O  0.35117696  0.40533339  0.43587821    -0.79900
O132        O  0.28657736  0.33873428  0.27865692    -0.64500
O133        O  0.33500502  0.36625151  0.37160365    -1.11200
C134        C  0.38771571  0.46114311  0.29757788     1.07000
O135        O  0.33034622  0.35555855  0.24636861    -0.77800
O136        O  0.38978478  0.40069700  0.26882106    -0.65300
Ni137      Ni  0.31522836  0.36675821  0.41811151     1.34900
C138        C  0.40148660  0.39521186  0.29934319     0.85800
O139        O  0.28468357  0.31141673  0.34706537    -0.78300
O140        O  0.27781145  0.32765270  0.40478285    -0.88600
C141        C  0.30105959  0.33752641  0.24923991     0.85300
O142        O  0.29764796  0.39210668  0.39660850    -0.66800
O143        O  0.37126598  0.44564539  0.26819642    -0.86100
C144        C  0.27932535  0.38491885  0.36731813     0.86200
C145        C  0.26906982  0.30697640  0.37749058     1.07700
H146        H  0.32352409  0.40678961  0.30990516     0.39500
O147        O  0.33482955  0.39466029  0.30878860    -1.08700
O148        O  0.38784297  0.38946291  0.33141845    -0.65400
Ni149      Ni  0.36288800  0.40714618  0.35153109     1.26300
O150        O  0.27880558  0.36573207  0.34133736    -0.65600
O151        O  0.38926425  0.44818482  0.32969247    -0.77900
C152        C  0.37945274  0.41237593  0.43010792     0.85600
O153        O  0.38979708  0.41680266  0.39602704    -0.65100
Ni154      Ni  0.35080650  0.40066073  0.25832294     1.27400
Ni155      Ni  0.30936014  0.35248270  0.32641023     1.26100
H156        H  0.34539740  0.35332103  0.37544353     0.40100
O157        O  0.42469661  0.08551679  0.56448679    -0.79900
O158        O  0.43213029  0.13745565  0.73076828    -0.64500
O159        O  0.44986031  0.12276982  0.62804291    -1.11200
C160        C  0.43752753  0.02614074  0.68756758     1.07000
O161        O  0.47001846  0.12654269  0.74948197    -0.77800
O162        O  0.49241074  0.08822767  0.71693072    -0.65300
Ni163      Ni  0.42518542  0.12327321  0.58454966     1.34900
C164        C  0.00565337  0.09457168  0.68439527     0.85800
O165        O  0.44086201  0.17057463  0.66397527    -0.78300
O166        O  0.42447007  0.16145778  0.60177924    -0.88600
C167        C  0.45386343  0.14092879  0.75484967     0.85300
O168        O  0.38447746  0.09779343  0.60564118    -0.66800
O169        O  0.43586171  0.03841027  0.71970774    -0.86100
C170        C  0.37390071  0.09909730  0.63858212     0.86200
C171        C  0.43092545  0.17794225  0.63287257     1.07700
H172        H  0.41236929  0.07348612  0.68920031     0.39500
O173        O  0.43434746  0.08855150  0.68818336    -1.08700
O174        O  0.49304656  0.10081866  0.65479446    -0.65400
Ni175      Ni  0.44857482  0.08214229  0.64026653     1.26300
O176        O  0.39227941  0.11089633  0.66819315    -0.65600
O177        O  0.44430808  0.04116398  0.65519647    -0.77900
C178        C  0.44982195  0.08394811  0.56030572     0.85600
O179        O  0.46254100  0.07848472  0.58983180    -0.65100
Ni180      Ni  0.45258371  0.08240397  0.73398013     1.27400
Ni181      Ni  0.43794175  0.12983781  0.67767282     1.26100
H182        H  0.47124947  0.13863709  0.62388841     0.40100
O183        O  0.01492085  0.23625915  0.90389157    -0.79900
O184        O  0.04095476  0.24425653  0.08037738    -0.64500
O185        O  0.01584826  0.21323535  0.97775846    -1.11200
C186        C  0.44374412  0.24946726  0.00216209     1.07000
O187        O  0.49301188  0.21220263  0.09921239    -0.77800
O188        O  0.43820673  0.18846855  0.05310613    -0.65300
Ni189      Ni  0.04478325  0.23104322  0.93676897     1.34900
C190        C  0.43225283  0.17048276  0.02355580     0.85800
O191        O  0.06235606  0.21868739  0.02910678    -0.78300
O192        O  0.07567340  0.22496679  0.96637378    -0.88600
C193        C  0.02260796  0.22603837  0.10574268     0.85300
O194        O  0.06416693  0.27616289  0.95004112    -0.66800
O195        O  0.45038513  0.24962313  0.03835886    -0.86100
C196        C  0.07165303  0.29053891  0.98258782     0.86200
C197        C  0.07907528  0.21850916  0.00163761     1.07700
H198        H  0.00676925  0.26380785  0.02183821     0.39500
O199        O  0.49776821  0.24090481  0.02513862    -1.08700
O200        O  0.45077167  0.17913638  0.99477941    -0.65400
Ni201      Ni  0.48133296  0.22188117  0.97613706     1.26300
O202        O  0.06100776  0.27500017  0.01405669    -0.65600
O203        O  0.44984070  0.23447890  0.97614793    -0.77900
C204        C  0.48731594  0.21386291  0.89764727     0.85600
O205        O  0.46827710  0.20380966  0.92531464    -0.65100
Ni206      Ni  0.47117251  0.23037379  0.06769568     1.27400
Ni207      Ni  0.03058145  0.23064562  0.02810812     1.26100
H208        H  0.00830952  0.19037694  0.97848529     0.40100
O209        O  0.07937418  0.16536440  0.23444151    -0.79900
O210        O  0.02544096  0.11331765  0.39548410    -0.64500
O211        O  0.04469314  0.15423150  0.29700059    -1.11200
C212        C  0.13906451  0.21991298  0.36643305     1.07000
O213        O  0.03694560  0.16082804  0.41890726    -0.77800
O214        O  0.07723884  0.22128874  0.39099255    -0.65300
Ni215      Ni  0.04164940  0.13069718  0.25128893     1.34900
C216        C  0.07241938  0.23064210  0.35819130     0.85800
O217        O  0.49454032  0.10231206  0.32752499    -0.78300
O218        O  0.50283621  0.09495491  0.26577100    -0.88600
C219        C  0.02250955  0.13040404  0.42162965     0.85300
O220        O  0.06477119  0.11014656  0.27088773    -0.66800
O221        O  0.12403636  0.20671109  0.39699807    -0.86100
C222        C  0.06322323  0.09620172  0.30295464     0.86200
C223        C  0.48577220  0.08733150  0.29556731     1.07700
H224        H  0.08921525  0.15232423  0.36093470     0.39500
O225        O  0.07610358  0.16256452  0.35931517    -1.08700
O226        O  0.06850818  0.21439472  0.32773758    -0.65400
Ni227      Ni  0.08561009  0.18689880  0.31303264     1.26300
O228        O  0.05048758  0.10114880  0.33244534    -0.65600
O229        O  0.12649670  0.21714003  0.33253192    -0.77900
C230        C  0.08179390  0.19313888  0.23401916     0.85600
O231        O  0.09201223  0.20979317  0.26456601    -0.65100
Ni232      Ni  0.08066849  0.18392282  0.40692328     1.27400
Ni233      Ni  0.03516369  0.13179510  0.34464576     1.26100
H234        H  0.03095423  0.16362782  0.29345301     0.40100
C235        C  0.03683358  0.18013349  0.18770440     0.24600
C236        C  0.06641128  0.20261782  0.20242354    -0.23500
C237        C  0.08007765  0.23387918  0.18748910     0.19500
C238        C  0.06551206  0.24176694  0.15668470     0.24600
C239        C  0.03639160  0.21884935  0.14109451    -0.23400
C240        C  0.02199740  0.18815500  0.15761058     0.19500
F241        F  0.49407418  0.16530308  0.14355468    -0.13400
F242        F  0.02176352  0.15029854  0.20289608    -0.15700
F243        F  0.07995735  0.27187753  0.14202019    -0.15700
F244        F  0.10792997  0.25654000  0.20193789    -0.13400
C245        C  0.43913357  0.16543045  0.81015322     0.24600
C246        C  0.46207945  0.16268016  0.78879876    -0.23500
C247        C  0.49336198  0.17905503  0.80199178     0.19500
C248        C  0.00144218  0.19686564  0.83620243     0.24600
C249        C  0.47842803  0.19842128  0.85877001    -0.23400
C250        C  0.44716113  0.18280147  0.84511765     0.19500
F251        F  0.42431664  0.18398898  0.86579728    -0.13400
F252        F  0.40874882  0.14991552  0.79830175    -0.15700
F253        F  0.03179622  0.21108320  0.84832997    -0.15700
F254        F  0.01633464  0.17743226  0.78201486    -0.13400
C255        C  0.98410981  0.07885193  0.50967090     0.24600
C256        C  0.46604926  0.09284270  0.52274902    -0.23500
C257        C  0.46574763  0.11806767  0.50121349     0.19500
C258        C  0.48335335  0.12938914  0.46783773     0.24600
C259        C  0.00153433  0.11563815  0.45474724    -0.23400
C260        C  0.00131662  0.08982178  0.47555259     0.19500
F261        F  0.01907937  0.07641865  0.46407046    -0.13400
F262        F  0.98546813  0.05495054  0.53018761    -0.15700
F263        F  0.48295840  0.15429005  0.44850819    -0.15700
F264        F  0.44995692  0.13331363  0.51383648    -0.13400
C265        C  0.22481468  0.25969519  0.34559312     0.24600
C266        C  0.23754653  0.27928978  0.37861718    -0.23500
C267        C  0.21782819  0.27602700  0.40948461     0.19500
C268        C  0.18581971  0.25624622  0.40571395     0.24600
C269        C  0.17293477  0.23925535  0.37114490    -0.23400
C270        C  0.19273704  0.24004193  0.34186098     0.19500
F271        F  0.18102144  0.22190151  0.30946960    -0.13400
F272        F  0.24302921  0.26063399  0.31587286    -0.15700
F273        F  0.16731408  0.25513177  0.43519514    -0.15700
F274        F  0.22908117  0.29333373  0.44256277    -0.13400
C275        C  0.41628790  0.01323377  0.32934212     0.24600
C276        C  0.40695249  0.49581876  0.29436864    -0.23500
C277        C  0.42068397  0.50989633  0.25916431     0.19500
C278        C  0.44402151  0.04079417  0.25926463     0.24600
C279        C  0.45543216  0.05808583  0.29409328    -0.23400
C280        C  0.43985907  0.04464580  0.32873690     0.19500
F281        F  0.44882263  0.06082699  0.36283146    -0.13400
F282        F  0.39978101  0.50236070  0.36161764    -0.15700
F283        F  0.95699756  0.05362017  0.22479522    -0.15700
F284        F  0.41286005  0.49256615  0.22590026    -0.13400
C285        C  0.28136824  0.27046649  0.17998243     0.24600
C286        C  0.27041653  0.28110233  0.14790698    -0.23500
C287        C  0.26308719  0.30621085  0.15274247     0.19500
C288        C  0.27006316  0.32278351  0.18793186     0.24600
C289        C  0.28453292  0.31447386  0.21825029    -0.23400
C290        C  0.28863407  0.28725820  0.21488970     0.19500
F291        F  0.30222921  0.27869287  0.24423265    -0.13400
F292        F  0.28803832  0.24583110  0.17621664    -0.15700
F293        F  0.26584044  0.34902435  0.19101890    -0.15700
F294        F  0.25324872  0.31745433  0.12207436    -0.13400
C295        C  0.41925738  0.31315641  0.00061635     0.24600
C296        C  0.39338300  0.29887092  0.97541194    -0.23500
C297        C  0.39030155  0.27434261  0.95046043     0.19500
C298        C  0.40770401  0.25854869  0.95813830     0.24600
C299        C  0.42922308  0.26868046  0.98932672    -0.23400
C300        C  0.43688530  0.29764195  0.00823430     0.19500
F301        F  0.45965426  0.30946955  0.03613837    -0.13400
F302        F  0.42309313  0.33785644  0.02366615    -0.15700
F303        F  0.40076827  0.23126627  0.93838247    -0.15700
F304        F  0.36580381  0.26097041  0.92499211    -0.13400
C305        C  0.13784031  0.19000547  0.99010777     0.24600
C306        C  0.16060385  0.20971323  0.01717070    -0.23500
C307        C  0.15311984  0.22600458  0.04533499     0.19500
C308        C  0.12480162  0.22668159  0.04233828     0.24600
C309        C  0.10427514  0.21116186  0.01114552    -0.23400
C310        C  0.10987974  0.19113161  0.98667239     0.19500
F311        F  0.08943235  0.17476549  0.95755394    -0.13400
F312        F  0.14459200  0.17336936  0.96352257    -0.15700
F313        F  0.11930214  0.24571052  0.06672133    -0.15700
F314        F  0.17495392  0.24526602  0.07167392    -0.13400
C315        C  0.31596850  0.25139597  0.83968748     0.24600
C316        C  0.30598709  0.27154682  0.85714242    -0.23500
C317        C  0.31475359  0.30200546  0.84156216     0.19500
C318        C  0.33427713  0.31267891  0.80977243     0.24600
C319        C  0.34442557  0.29259502  0.79236508    -0.23400
C320        C  0.33464403  0.26165800  0.80701594     0.19500
F321        F  0.34446278  0.24205095  0.79084890    -0.13400
F322        F  0.30794024  0.22199461  0.85463055    -0.15700
F323        F  0.34336640  0.34268695  0.79606558    -0.15700
F324        F  0.30587193  0.32209929  0.85852717    -0.13400
C325        C  0.40685134  0.43904611  0.71718789     0.24600
C326        C  0.42464112  0.43107168  0.69260778    -0.23500
C327        C  0.44540930  0.45380271  0.66691247     0.19500
C328        C  0.44819810  0.48424978  0.66537395     0.24600
C329        C  0.43007233  0.49235884  0.68938701    -0.23400
C330        C  0.40938171  0.46961167  0.71542307     0.19500
F331        F  0.39541848  0.97837131  0.73889685    -0.13400
F332        F  0.38666173  0.41710303  0.74208376    -0.15700
F333        F  0.46966159  0.50619575  0.64159271    -0.15700
F334        F  0.46383207  0.44677580  0.64417723    -0.13400
C335        C  0.41468273  0.21403570  0.66738317     0.24600
C336        C  0.42367512  0.20518117  0.63303480    -0.23500
C337        C  0.42076562  0.21906661  0.59793736     0.19500
C338        C  0.40791705  0.24002595  0.59696145     0.24600
C339        C  0.39736464  0.24758362  0.63104094    -0.23400
C340        C  0.40170993  0.23492045  0.66642221     0.19500
F341        F  0.39295196  0.24222869  0.70031941    -0.13400
F342        F  0.41660236  0.20099245  0.70182535    -0.15700
F343        F  0.40491276  0.25199840  0.56220880    -0.15700
F344        F  0.42954549  0.21167448  0.56409714    -0.13400
C345        C  0.40278546  0.40720043  0.53295144     0.24600
C346        C  0.41518126  0.38597199  0.52842706    -0.23500
C347        C  0.42293919  0.38065257  0.49137281     0.19500
C348        C  0.41556066  0.39388793  0.45890466     0.24600
C349        C  0.39877684  0.41111907  0.46308502    -0.23400
C350        C  0.39410249  0.41924025  0.50046535     0.19500
F351        F  0.37840349  0.43620020  0.50548110    -0.13400
F352        F  0.39496946  0.41256721  0.56859604    -0.15700
F353        F  0.42095301  0.38607914  0.42324033    -0.15700
F354        F  0.43478146  0.36011928  0.48637338    -0.13400
C355        C  0.24099240  0.39665384  0.32892160     0.24600
C356        C  0.25709177  0.39831345  0.36404871    -0.23500
C357        C  0.25056582  0.41160389  0.39669182     0.19500
C358        C  0.22798511  0.42196982  0.39460435     0.24600
C359        C  0.21126909  0.41942749  0.35986785    -0.23400
C360        C  0.21839349  0.40712517  0.32687406     0.19500
F361        F  0.20203112  0.40317823  0.29319602    -0.13400
F362        F  0.24644097  0.38412726  0.29661496    -0.15700
F363        F  0.22181732  0.43365209  0.42713896    -0.15700
F364        F  0.26487981  0.41321144  0.43141184    -0.13400
C365        C  0.48660690  0.42809046  0.27563282     0.24600
C366        C  0.99690733  0.41335650  0.30364128    -0.23500
C367        C  0.47519801  0.39076874  0.32879948     0.19500
C368        C  0.44363253  0.38334303  0.32616505     0.24600
C369        C  0.43337565  0.39854813  0.29843246    -0.23400
C370        C  0.45526238  0.42081521  0.27300370     0.19500
F371        F  0.44678757  0.43710508  0.24697593    -0.13400
F372        F  0.50729701  0.45078473  0.25184041    -0.15700
F373        F  0.42312195  0.36130414  0.35068426    -0.15700
F374        F  0.98444955  0.37556223  0.35543407    -0.13400
C375        C  0.08361247  0.03088633  0.33914008     0.24600
C376        C  0.09262086  0.02169544  0.30482512    -0.23500
C377        C  0.09428901  0.03915254  0.27093433     0.19500
C378        C  0.08613841  0.06396609  0.27087445     0.24600
C379        C  0.07566734  0.07227739  0.30475606    -0.23400
C380        C  0.07546252  0.05584862  0.33915507     0.19500
F381        F  0.06645081  0.06316917  0.37283760    -0.13400
F382        F  0.08063208  0.01434362  0.37241390    -0.15700
F383        F  0.08753703  0.07901681  0.23679231    -0.15700
F384        F  0.10642624  0.53431140  0.24103012    -0.13400
C385        C  0.08681812  0.28187171  0.32156008     0.24600
C386        C  0.07404666  0.26292226  0.35475283    -0.23500
C387        C  0.06719208  0.27695724  0.38623460     0.19500
C388        C  0.07507262  0.30956818  0.38581369     0.24600
C389        C  0.09069235  0.32936260  0.35411485    -0.23400
C390        C  0.09523270  0.31461595  0.32133153     0.19500
F391        F  0.10944066  0.33210036  0.28960648    -0.13400
F392        F  0.09338927  0.26937674  0.29008299    -0.15700
F393        F  0.06814588  0.32185944  0.41719161    -0.15700
F394        F  0.05339371  0.25922489  0.41795084    -0.13400
C395        C  0.20710335  0.48599447  0.16510814     0.24600
C396        C  0.20732016  0.46156674  0.14231704    -0.23500
C397        C  0.18748201  0.42947740  0.15269300     0.19500
C398        C  0.16744660  0.42212625  0.18437473     0.24600
C399        C  0.16619799  0.44664270  0.20578755    -0.23400
C400        C  0.18665594  0.47862818  0.19612665     0.19500
F401        F  0.18688517  0.50294986  0.21683549    -0.13400
F402        F  0.22182219  0.01751803  0.15433996    -0.15700
F403        F  0.14819720  0.39099360  0.19299012    -0.15700
F404        F  0.18724051  0.40517655  0.13193769    -0.13400
C405        C  0.13582458  0.37462351  0.01685031     0.24600
C406        C  0.14351057  0.39299092  0.98243692    -0.23500
C407        C  0.12493377  0.37797244  0.94918056     0.19500
C408        C  0.10108123  0.34565077  0.94969227     0.24600
C409        C  0.09457407  0.32659456  0.98353409    -0.23400
C410        C  0.11190423  0.34220170  0.01740780     0.19500
F411        F  0.10695806  0.32560668  0.05098955    -0.13400
F412        F  0.15289894  0.38730467  0.04972727    -0.15700
F413        F  0.08461901  0.33291152  0.91642269    -0.15700
F414        F  0.13024095  0.39448497  0.91546766    -0.13400
C415        C  0.35359550  0.09921103  0.98847154     0.24600
C416        C  0.33853568  0.08500907  0.02350811    -0.23500
C417        C  0.35625238  0.09803993  0.05808744     0.19500
C418        C  0.38676895  0.12432080  0.05774504     0.24600
C419        C  0.40151960  0.13900399  0.02289155    -0.23400
C420        C  0.38438920  0.12552567  0.98818624     0.19500
F421        F  0.39665145  0.13904673  0.95373993    -0.13400
F422        F  0.33817585  0.08841138  0.95414721    -0.15700
F423        F  0.40167564  0.13591599  0.09221116    -0.15700
F424        F  0.34365514  0.08633822  0.09303074    -0.13400
C425        C  0.25063738  0.13108365  0.04857327     0.24600
C426        C  0.25434409  0.11490592  0.01689893    -0.23500
C427        C  0.27212753  0.13276919  0.98549068     0.19500
C428        C  0.28710849  0.16625858  0.98655143     0.24600
C429        C  0.28431759  0.18251637  0.01895863    -0.23400
C430        C  0.26526802  0.16446055  0.04952234     0.19500
F431        F  0.26076240  0.17902412  0.08058598    -0.13400
F432        F  0.23350775  0.11450812  0.07927997    -0.15700
F433        F  0.30546110  0.18264424  0.95659998    -0.15700
F434        F  0.27705748  0.11789023  0.95506945    -0.13400
C435        C  0.23470810  0.37158242  0.01790610     0.24600
C436        C  0.24728959  0.39341249  0.98713548    -0.23500
C437        C  0.26255731  0.38650663  0.95739481     0.19500
C438        C  0.26351573  0.35760148  0.95719844     0.24600
C439        C  0.24958978  0.33523445  0.98691565    -0.23400
C440        C  0.23601068  0.34283497  0.01784962     0.19500
F441        F  0.22231056  0.32164249  0.04695255    -0.13400
F442        F  0.21955543  0.37705803  0.04706835    -0.15700
F443        F  0.27797043  0.35143451  0.92776777    -0.15700
F444        F  0.27622108  0.40746850  0.92807703    -0.13400
C445        C  0.23659372  0.07002089  0.81289712     0.24600
C446        C  0.20510796  0.05995487  0.80216341    -0.23500
C447        C  0.18175979  0.03637446  0.82522243     0.19500
C448        C  0.18953873  0.02351038  0.85782428     0.24600
C449        C  0.22088512  0.03391766  0.86893809    -0.23400
C450        C  0.24435800  0.05741941  0.84614434     0.19500
F451        F  0.27486278  0.06723785  0.85515448    -0.13400
F452        F  0.25991844  0.09191091  0.79114800    -0.15700
F453        F  0.16613838  0.00085275  0.87883743    -0.15700
F454        F  0.15107206  0.02459770  0.81545876    -0.13400
C455        C  0.32583014  0.09409663  0.67434827     0.24600
C456        C  0.33895101  0.08825675  0.64116322    -0.23500
C457        C  0.31872085  0.07523789  0.60842509     0.19500
C458        C  0.28757894  0.07008630  0.60819087     0.24600
C459        C  0.27481512  0.07674368  0.64094960    -0.23400
C460        C  0.29435293  0.08817791  0.67432503     0.19500
F461        F  0.28367992  0.09583109  0.70641059    -0.13400
F462        F  0.34383026  0.10711267  0.70651062    -0.15700
F463        F  0.26999762  0.05899589  0.57528656    -0.15700
F464        F  0.32921995  0.06828827  0.57566677    -0.13400
C465        C  0.06483756  0.06829452  0.64885176     0.24600
C466        C  0.08359462  0.07193875  0.68233287    -0.23500
C467        C  0.07881767  0.08729372  0.71452551     0.19500
C468        C  0.05507730  0.09654512  0.71418019     0.24600
C469        C  0.03541413  0.09163644  0.68136905    -0.23400
C470        C  0.04130835  0.07803774  0.64836842     0.19500
F471        F  0.52268469  0.07182123  0.61632922    -0.13400
F472        F  0.06805777  0.05374912  0.61692155    -0.15700
F473        F  0.05075136  0.10955401  0.74682178    -0.15700
F474        F  0.09667975  0.09281271  0.74719073    -0.13400
C475        C  0.02444366  0.41391512  0.64038452     0.24600
C476        C  0.51266635  0.39531619  0.67399818    -0.23500
C477        C  0.03247904  0.40127848  0.70669095     0.19500
C478        C  0.06200358  0.42762753  0.70736094     0.24600
C479        C  0.07219134  0.44813568  0.67536860    -0.23400
C480        C  0.05395818  0.44030200  0.64121255     0.19500
F481        F  0.06389237  0.95741046  0.61056288    -0.13400
F482        F  0.50639788  0.40887173  0.60794522    -0.15700
F483        F  0.07986049  0.43426828  0.74020384    -0.15700
F484        F  0.52253493  0.38316771  0.73914136    -0.13400
C485        C  0.23947927  0.19601123  0.61988528     0.24600
C486        C  0.24040777  0.17710904  0.65119837    -0.23500
C487        C  0.25569388  0.19226747  0.68591060     0.19500
C488        C  0.27483437  0.22518129  0.68650384     0.24600
C489        C  0.27881916  0.24284238  0.65238449    -0.23400
C490        C  0.25875865  0.22885943  0.62056647     0.19500
F491        F  0.26057469  0.24644049  0.58853063    -0.13400
F492        F  0.22170064  0.18272204  0.58758696    -0.15700
F493        F  0.29284080  0.23874393  0.71852569    -0.15700
F494        F  0.25455879  0.17522945  0.71818263    -0.13400
C495        C  0.10209947  0.99895101  0.51647473     0.24600
C496        C  0.13343042  0.00897071  0.52843157    -0.23500
C497        C  0.15162889  0.49878690  0.50827604     0.19500
C498        C  0.13781373  0.47718299  0.47757829     0.24600
C499        C  0.10652661  0.46684977  0.46622054    -0.23400
C500        C  0.08923513  0.47864756  0.48618763     0.19500
F501        F  0.05876336  0.96939005  0.47346597    -0.13400
F502        F  0.08431825  0.00911258  0.53566474    -0.15700
F503        F  0.15539845  0.46686333  0.45819921    -0.15700
F504        F  0.18193653  0.50805787  0.51790513    -0.13400
O505        O  0.16811715  0.56778735  0.76278977    -0.79900
O506        O  0.13086172  0.53173346  0.59009861    -0.64500
O507        O  0.16360334  0.53880088  0.69295701    -1.11200
C508        C  0.22790267  0.64315988  0.64851700     1.07000
O509        O  0.17816411  0.54778372  0.56799167    -0.77800
O510        O  0.23473378  0.58356735  0.60843376    -0.65300
Ni511      Ni  0.13678141  0.53138909  0.73574011     1.34900
C512        C  0.24306553  0.57574017  0.64022385     0.85800
O513        O  0.11531762  0.99080116  0.65062657    -0.78300
O514        O  0.10403007  0.99303883  0.71286318    -0.88600
C515        C  0.14847466  0.53139516  0.56373827     0.85300
O516        O  0.11753140  0.55688114  0.71838420    -0.66800
O517        O  0.21994073  0.63195145  0.61413706    -0.86100
C518        C  0.10624966  0.55855672  0.68536495     0.86200
C519        C  0.09913921  0.97865553  0.68041606     1.07700
H520        H  0.16526731  0.59125738  0.63854740     0.39500
O521        O  0.17560066  0.57814357  0.63785115    -1.08700
O522        O  0.22652209  0.56954795  0.67040575    -0.65400
Ni523      Ni  0.19564572  0.58198413  0.68704418     1.26300
O524        O  0.11364563  0.54867534  0.65487559    -0.65600
O525        O  0.22424869  0.62599369  0.67875642    -0.77900
C526        C  0.19575237  0.57188087  0.76684992     0.85600
O527        O  0.21357632  0.58240942  0.73799433    -0.65100
Ni528      Ni  0.19956888  0.58985452  0.59253641     1.27400
Ni529      Ni  0.14521807  0.53509921  0.64261991     1.26100
H530        H  0.17274693  0.52460010  0.69488827     0.40100
O531        O  0.25028472  0.49631878  0.10243836    -0.79900
O532        O  0.24992202  0.53797124  0.92960003    -0.64500
O533        O  0.22806923  0.50768473  0.03324543    -1.11200
C534        C  0.24259552  0.92212688  0.98566479     1.07000
O535        O  0.21247566  0.98919240  0.90923072    -0.77800
O536        O  0.18775249  0.93016868  0.94825290    -0.65300
Ni537      Ni  0.25121771  0.53302280  0.07679478     1.34900
C538        C  0.17378858  0.92428292  0.98036664     0.85800
O539        O  0.23728319  0.56257632  0.99262520    -0.78300
O540        O  0.25252894  0.57110948  0.05527417    -0.88600
C541        C  0.22928212  0.52068197  0.90446372     0.85300
O542        O  0.29303056  0.54691126  0.05828299    -0.66800
O543        O  0.24426268  0.93428384  0.95194570    -0.86100
C544        C  0.30453856  0.55930990  0.02564767     0.86200
C545        C  0.24640588  0.58021491  0.02283129     1.07700
H546        H  0.26760904  0.99384166  0.97706389     0.39500
O547        O  0.24555280  0.98743262  0.97655758    -1.08700
O548        O  0.18579005  0.94330065  0.00931924    -0.65400
Ni549      Ni  0.22984347  0.96892871  0.02543380     1.26300
O550        O  0.28708665  0.55198600  0.99487426    -0.65600
O551        O  0.23520482  0.93198423  0.01615049    -0.77900
C552        C  0.22520864  0.97130963  0.10573014     0.85600
O553        O  0.21425970  0.95351227  0.07611184    -0.65100
Ni554      Ni  0.22858392  0.96194082  0.93174332     1.27400
Ni555      Ni  0.24173438  0.52526677  0.98306347     1.26100
H556        H  0.20651572  0.50286619  0.03570277     0.40100
O557        O  0.09629018  0.92018518  0.42898353    -0.79900
O558        O  0.13905184  0.91679108  0.26178682    -0.64500
O559        O  0.12746959  0.94173238  0.36225586    -1.11200
C560        C  0.02859011  0.91855423  0.30377698     1.07000
O561        O  0.12615305  0.95253131  0.23778845    -0.77800
O562        O  0.08930473  0.97648456  0.27083458    -0.65300
Ni563      Ni  0.13239275  0.92092508  0.40758759     1.34900
C564        C  0.09521491  0.99123184  0.30297603     0.85800
O565        O  0.17445745  0.93310468  0.32635872    -0.78300
O566        O  0.16925547  0.92030337  0.38937930    -0.88600
C567        C  0.14205258  0.93738935  0.23605842     0.85300
O568        O  0.10694889  0.87807557  0.38984884    -0.66800
O569        O  0.04093401  0.91803292  0.27156243    -0.86100
C570        C  0.10539724  0.86503415  0.35735932     0.86200
C571        C  0.18393563  0.92579668  0.35773956     1.07700
H572        H  0.07801620  0.89706708  0.30323478     0.39500
O573        O  0.09181599  0.91987452  0.30325740    -1.08700
O574        O  0.10117876  0.97982306  0.33368277    -0.65400
Ni575      Ni  0.08579291  0.93588807  0.35068234     1.26300
O576        O  0.11645237  0.88158623  0.32672072    -0.65600
O577        O  0.04360311  0.92692975  0.33637223    -0.77900
C578        C  0.09321155  0.94521315  0.43028132     0.85600
O579        O  0.08324935  0.95327535  0.40014097    -0.65100
Ni580      Ni  0.08350898  0.93499235  0.25594811     1.27400
Ni581      Ni  0.13331625  0.92690210  0.31355736     1.26100
H582        H  0.14182921  0.96432175  0.36445667     0.40100
O583        O  0.38776322  0.83621402  0.55498330    -0.79900
O584        O  0.35986363  0.78722308  0.72927015    -0.64500
O585        O  0.37558147  0.83126515  0.63328922    -1.11200
C586        C  0.47980766  0.87319357  0.67793693     1.07000
O587        O  0.38911714  0.83202582  0.76110684    -0.77800
O588        O  0.42447080  0.88649780  0.72362209    -0.65300
Ni589      Ni  0.35796617  0.80475575  0.58864209     1.34900
C590        C  0.42409725  0.89962397  0.69174397     0.85800
O591        O  0.32383124  0.79116769  0.67347470    -0.78300
O592        O  0.32372124  0.77142617  0.61563630    -0.88600
C593        C  0.36618722  0.80399824  0.75952622     0.85300
O594        O  0.38413226  0.78523546  0.59879478    -0.66800
O595        O  0.46861620  0.86786212  0.71189712    -0.86100
C596        C  0.38293881  0.76955792  0.62947903     0.86200
C597        C  0.31014184  0.77134606  0.64669609     1.07700
H598        H  0.41752109  0.81047222  0.68578739     0.39500
O599        O  0.41077403  0.82661623  0.68706213    -1.08700
O600        O  0.42239928  0.88705509  0.65913485    -0.65400
Ni601      Ni  0.41981336  0.84879951  0.63905014     1.26300
O602        O  0.36854756  0.77116879  0.65924019    -0.65600
O603        O  0.46330756  0.86518037  0.64688517    -0.77900
C604        C  0.41154550  0.86337678  0.55983263     0.85600
O605        O  0.42754038  0.87168434  0.59112170    -0.65100
Ni606      Ni  0.42819609  0.84901930  0.73432108     1.27400
Ni607      Ni  0.36726626  0.80843201  0.68082642     1.26100
H608        H  0.36901107  0.84759305  0.63420877     0.40100
O609        O  0.30026375  0.77283956  0.10601782    -0.79900
O610        O  0.30486563  0.75728050  0.92408396    -0.64500
O611        O  0.30030440  0.78313732  0.02659350    -1.11200
C612        C  0.19357771  0.72378212  0.00554083     1.07000
O613        O  0.26748497  0.76637510  0.89949905    -0.77800
O614        O  0.24882246  0.79354548  0.95277695    -0.65300
Ni615      Ni  0.32597223  0.77568184  0.06386891     1.34900
C616        C  0.24973827  0.80484746  0.98609090     0.85800
O617        O  0.34595250  0.79817382  0.97296866    -0.78300
O618        O  0.35658891  0.77989593  0.02735663    -0.88600
C619        C  0.29219792  0.76394182  0.89575688     0.85300
O620        O  0.30186283  0.73100493  0.05493206    -0.66800
O621        O  0.20047571  0.73469533  0.97130389    -0.86100
C622        C  0.29818135  0.71723666  0.02246910     0.86200
C623        C  0.36462077  0.79414768  0.99507500     1.07700
H624        H  0.25427633  0.72111185  0.97667328     0.39500
O625        O  0.25958031  0.74349667  0.97776615    -1.08700
O626        O  0.24859658  0.78983100  0.01713611    -0.65400
Ni627      Ni  0.25656263  0.75476916  0.03010857     1.26300
O628        O  0.30785341  0.73340836  0.99138288    -0.65600
O629        O  0.21337678  0.72641498  0.03160897    -0.77900
C630        C  0.27390272  0.77159942  0.11026991     0.85600
O631        O  0.25443119  0.76617059  0.08258672    -0.65100
Ni632      Ni  0.23552529  0.75051989  0.93814184     1.27400
Ni633      Ni  0.30286287  0.77023085  0.97512778     1.26100
H634        H  0.30499309  0.80515079  0.02708332     0.40100
O635        O  0.35189861  0.90553014  0.43660661    -0.79900
O636        O  0.28568500  0.83776938  0.27996125    -0.64500
O637        O  0.33441248  0.86570088  0.37267681    -1.11200
C638        C  0.38805008  0.96003660  0.29823145     1.07000
O639        O  0.32906502  0.85485328  0.24665260    -0.77800
O640        O  0.38864955  0.89923858  0.26892094    -0.65300
Ni641      Ni  0.31496178  0.86753184  0.41888854     1.34900
C642        C  0.40021776  0.89308988  0.29909852     0.85800
O643        O  0.28367017  0.81119743  0.34915029    -0.78300
O644        O  0.27685836  0.82877799  0.40605328    -0.88600
C645        C  0.29984822  0.83675202  0.25008575     0.85300
O646        O  0.29836824  0.89357589  0.39624069    -0.66800
O647        O  0.37095935  0.94488872  0.26907822    -0.86100
C648        C  0.27973610  0.88596351  0.36713886     0.86200
C649        C  0.26810046  0.80743761  0.37950138     1.07700
H650        H  0.32350587  0.90631892  0.31096511     0.39500
O651        O  0.33445316  0.89385310  0.30957099    -1.08700
O652        O  0.38674047  0.88728007  0.33133920    -0.65400
Ni653      Ni  0.36283069  0.90604794  0.35198417     1.26300
O654        O  0.27849196  0.86577631  0.34210702    -0.65600
O655        O  0.38984415  0.94668848  0.32986723    -0.77900
C656        C  0.38000885  0.91189382  0.43046100     0.85600
O657        O  0.38990692  0.91538847  0.39620019    -0.65100
Ni658      Ni  0.34997447  0.89989010  0.25890962     1.27400
Ni659      Ni  0.30864419  0.85185052  0.32763989     1.26100
H660        H  0.34440380  0.85243782  0.37694359     0.40100
O661        O  0.42346666  0.58503589  0.56591285    -0.79900
O662        O  0.43149468  0.63751123  0.73264074    -0.64500
O663        O  0.44911069  0.62245251  0.62987428    -1.11200
C664        C  0.43491139  0.52521130  0.68898581     1.07000
O665        O  0.46855976  0.62549620  0.75207367    -0.77800
O666        O  0.49053362  0.58672932  0.71888128    -0.65300
Ni667      Ni  0.42454305  0.62299092  0.58629041     1.34900
C668        C  0.00383147  0.59291778  0.68633755     0.85800
O669        O  0.44050086  0.67070155  0.66560975    -0.78300
O670        O  0.42418629  0.66130106  0.60344737    -0.88600
C671        C  0.45288010  0.64048638  0.75704809     0.85300
O672        O  0.38404189  0.59759613  0.60762807    -0.66800
O673        O  0.43345326  0.53743721  0.72124021    -0.86100
C674        C  0.37335184  0.59876102  0.64050399     0.86200
C675        C  0.43081079  0.67808495  0.63427435     1.07700
H676        H  0.41105924  0.57342615  0.69095807     0.39500
O677        O  0.43310327  0.58825860  0.69003750    -1.08700
O678        O  0.49144055  0.59942063  0.65671072    -0.65400
Ni679      Ni  0.44708163  0.58160626  0.64205189     1.26300
O680        O  0.39162255  0.61094635  0.67009215    -0.65600
O681        O  0.44194633  0.54034658  0.65673218    -0.77900
C682        C  0.44828579  0.58291880  0.56179212     0.85600
O683        O  0.46098420  0.57781852  0.59162703    -0.65100
Ni684      Ni  0.45077014  0.58141869  0.73590705     1.27400
Ni685      Ni  0.43724480  0.62976233  0.67951914     1.26100
H686        H  0.47058427  0.63808280  0.62571968     0.40100
O687        O  0.01452883  0.73726452  0.90494156    -0.79900
O688        O  0.04204081  0.74259568  0.08123349    -0.64500
O689        O  0.01590653  0.71331079  0.97813911    -1.11200
C690        C  0.44563881  0.75106964  0.00527905     1.07000
O691        O  0.49409146  0.71141491  0.10070412    -0.77800
O692        O  0.43904706  0.68902803  0.05474666    -0.65300
Ni693      Ni  0.04462532  0.73187157  0.93706419     1.34900
C694        C  0.43274556  0.67109332  0.02504636     0.85800
O695        O  0.06205732  0.71702102  0.02839680    -0.78300
O696        O  0.07588356  0.72588460  0.96588081    -0.88600
C697        C  0.02373781  0.72474488  0.10688363     0.85300
O698        O  0.06334922  0.77664071  0.95139434    -0.66800
O699        O  0.45249289  0.75086934  0.04134677    -0.86100
C700        C  0.07175837  0.79037101  0.98423617     0.86200
C701        C  0.07905502  0.71814289  0.00063196     1.07700
H702        H  0.00824512  0.76389275  0.02395757     0.39500
O703        O  0.49886170  0.74093022  0.02690420    -1.08700
O704        O  0.45114264  0.67973478  0.99615325    -0.65400
Ni705      Ni  0.48182716  0.72251318  0.97776251     1.26300
O706        O  0.06203272  0.77420815  0.01550464    -0.65600
O707        O  0.45088873  0.73568955  0.97897762    -0.77900
C708        C  0.48690005  0.71491967  0.89889386     0.85600
O709        O  0.46805654  0.70491095  0.92676985    -0.65100
Ni710      Ni  0.47266350  0.73051897  0.06983862     1.27400
Ni711      Ni  0.03104285  0.72980574  0.02874976     1.26100
H712        H  0.00816838  0.69041461  0.97811674     0.40100
O713        O  0.08069906  0.66549492  0.23764949    -0.79900
O714        O  0.02432120  0.61224467  0.39691998    -0.64500
O715        O  0.04488072  0.65402322  0.29917585    -1.11200
C716        C  0.13825083  0.71932824  0.37065188     1.07000
O717        O  0.03530779  0.65927641  0.42166820    -0.77800
O718        O  0.07594923  0.72017206  0.39404704    -0.65300
Ni719      Ni  0.04268177  0.63083746  0.25344763     1.34900
C720        C  0.07164808  0.72987280  0.36118821     0.85800
O721        O  0.49441335  0.60185681  0.32841670    -0.78300
O722        O  0.50356495  0.59510495  0.26681138    -0.88600
C723        C  0.02094458  0.62877405  0.42335574     0.85300
O724        O  0.06562482  0.61044249  0.27376233    -0.66800
O725        O  0.12292509  0.70596711  0.40101471    -0.86100
C726        C  0.06409320  0.59667146  0.30590632     0.86200
C727        C  0.48594822  0.58745025  0.29607596     1.07700
H728        H  0.08855511  0.65181286  0.36409983     0.39500
O729        O  0.07538652  0.66197993  0.36226215    -1.08700
O730        O  0.06799545  0.71380745  0.33064006    -0.65400
Ni731      Ni  0.08545715  0.68661466  0.31614003     1.26300
O732        O  0.05058400  0.60100991  0.33496513    -0.65600
O733        O  0.12597025  0.71678456  0.33659839    -0.77900
C734        C  0.08284284  0.69312225  0.23689086     0.85600
O735        O  0.09240481  0.70973834  0.26759772    -0.65100
Ni736      Ni  0.07930382  0.68282417  0.41015644     1.27400
Ni737      Ni  0.03472524  0.63125709  0.34656611     1.26100
H738        H  0.03113013  0.66336836  0.29528484     0.40100
C739        C  0.03772822  0.67975797  0.19047111     0.24600
C740        C  0.06754064  0.70219243  0.20471224    -0.23500
C741        C  0.08172114  0.73294766  0.18839787     0.19500
C742        C  0.06721976  0.74049812  0.15718684     0.24600
C743        C  0.03765502  0.71776512  0.14240795    -0.23400
C744        C  0.02292287  0.68749481  0.16000619     0.19500
F745        F  0.49465742  0.66475114  0.14670549    -0.13400
F746        F  0.02242446  0.65022236  0.20638236    -0.15700
F747        F  0.08219126  0.77014698  0.14134663    -0.15700
F748        F  0.11007397  0.75537979  0.20183114    -0.13400
C749        C  0.43877279  0.66689117  0.81110012     0.24600
C750        C  0.46133543  0.66251242  0.79087064    -0.23500
C751        C  0.49246286  0.67790505  0.80479713     0.19500
C752        C  0.00071188  0.69630595  0.83855947     0.24600
C753        C  0.47797187  0.69922424  0.86016869    -0.23400
C754        C  0.44692220  0.68468273  0.84579458     0.19500
F755        F  0.42445497  0.68750591  0.86540661    -0.13400
F756        F  0.40859584  0.65269586  0.79836557    -0.15700
F757        F  0.03091883  0.70982839  0.85120938    -0.15700
F758        F  0.01514439  0.67484613  0.78595084    -0.13400
C759        C  0.98874883  0.58331901  0.51653394     0.24600
C760        C  0.46387733  0.58996875  0.52354905    -0.23500
C761        C  0.45641274  0.60707478  0.49515821     0.19500
C762        C  0.47437269  0.61868765  0.46196142     0.24600
C763        C  0.99975184  0.61296570  0.45582133    -0.23400
C764        C  0.00626495  0.59442913  0.48277184     0.19500
F765        F  0.03079518  0.58870368  0.47751681    -0.13400
F766        F  0.99681397  0.56693291  0.54283268    -0.15700
F767        F  0.46735315  0.63620108  0.43608859    -0.15700
F768        F  0.43286458  0.61435523  0.50043420    -0.13400
C769        C  0.22366916  0.75989012  0.34846068     0.24600
C770        C  0.23671004  0.77956483  0.38133446    -0.23500
C771        C  0.21746160  0.77579300  0.41294085     0.19500
C772        C  0.18542145  0.75552371  0.40993507     0.24600
C773        C  0.17217796  0.73854596  0.37542688    -0.23400
C774        C  0.19170135  0.73965255  0.34561253     0.19500
F775        F  0.17977254  0.72137766  0.31336026    -0.13400
F776        F  0.24137916  0.76139753  0.31789667    -0.15700
F777        F  0.16724009  0.75397032  0.44000593    -0.15700
F778        F  0.22921451  0.79295254  0.44603029    -0.13400
C779        C  0.41434537  0.51475180  0.32780070     0.24600
C780        C  0.40766285  0.99471718  0.29544184    -0.23500
C781        C  0.42030946  0.00920766  0.25997855     0.19500
C782        C  0.44470805  0.54132002  0.25869545     0.24600
C783        C  0.45517367  0.55883825  0.29349805    -0.23400
C784        C  0.43804945  0.54610335  0.32736487     0.19500
F785        F  0.44559739  0.56291295  0.36102291    -0.13400
F786        F  0.40300490  0.00042827  0.36367865    -0.15700
F787        F  0.95891597  0.55369485  0.22470099    -0.15700
F788        F  0.41163482  0.99218505  0.22647540    -0.13400
C789        C  0.27722430  0.76832329  0.18171433     0.24600
C790        C  0.26805486  0.77996540  0.14895818    -0.23500
C791        C  0.26281435  0.80652249  0.15285403     0.19500
C792        C  0.27028722  0.82346039  0.18778112     0.24600
C793        C  0.28295867  0.81393415  0.21896165    -0.23400
C794        C  0.28496840  0.78544986  0.21646429     0.19500
F795        F  0.29718433  0.77592815  0.24642955    -0.13400
F796        F  0.28172645  0.74222075  0.17882133    -0.15700
F797        F  0.26837131  0.85107905  0.18983237    -0.15700
F798        F  0.25473062  0.81867180  0.12148797    -0.13400
C799        C  0.41957425  0.81349418  0.00681610     0.24600
C800        C  0.39427567  0.79954626  0.98073351    -0.23500
C801        C  0.39245173  0.77644913  0.95433944     0.19500
C802        C  0.41062380  0.76140032  0.96096204     0.24600
C803        C  0.43138898  0.77066539  0.99294949    -0.23400
C804        C  0.43796864  0.79868410  0.01344818     0.19500
F805        F  0.46025452  0.81004555  0.04195563    -0.13400
F806        F  0.42222189  0.83700325  0.03118020    -0.15700
F807        F  0.40492281  0.73531538  0.93937044    -0.15700
F808        F  0.36838132  0.76331907  0.92826611    -0.13400
C809        C  0.13887590  0.69156493  0.98700041     0.24600
C810        C  0.16100762  0.71042940  0.01514616    -0.23500
C811        C  0.15287534  0.72548039  0.04415545     0.19500
C812        C  0.12440438  0.72573911  0.04129043     0.24600
C813        C  0.10443843  0.71107884  0.00936694    -0.23400
C814        C  0.11076268  0.69231534  0.98369479     0.19500
F815        F  0.09087955  0.67689250  0.95371394    -0.13400
F816        F  0.14638593  0.67619242  0.95953032    -0.15700
F817        F  0.11820587  0.74364297  0.06667109    -0.15700
F818        F  0.17420153  0.74401413  0.07141966    -0.13400
C819        C  0.32376897  0.75495445  0.84588686     0.24600
C820        C  0.30806336  0.77161400  0.85835484    -0.23500
C821        C  0.31033533  0.79792148  0.83674244     0.19500
C822        C  0.32913281  0.80822675  0.80425285     0.24600
C823        C  0.34533879  0.79199779  0.79246787    -0.23400
C824        C  0.34210607  0.76496496  0.81291594     0.19500
F825        F  0.35784442  0.74920932  0.80193978    -0.13400
F826        F  0.32155798  0.72917895  0.86584501    -0.15700
F827        F  0.33181043  0.83428139  0.78446068    -0.15700
F828        F  0.29579816  0.81476447  0.84828783    -0.13400
C829        C  0.41024750  0.94027462  0.71695671     0.24600
C830        C  0.42720894  0.93175088  0.69162051    -0.23500
C831        C  0.44738054  0.95419335  0.66511161     0.19500
C832        C  0.45037190  0.98477349  0.66359981     0.24600
C833        C  0.43290833  0.99329346  0.68825619    -0.23400
C834        C  0.41283691  0.97086338  0.71504760     0.19500
F835        F  0.39140966  0.47682671  0.73866573    -0.13400
F836        F  0.39069801  0.91880610  0.74277151    -0.15700
F837        F  0.47134178  0.00641448  0.63909172    -0.15700
F838        F  0.46506568  0.94680803  0.64151015    -0.13400
C839        C  0.41713743  0.71664805  0.66792432     0.24600
C840        C  0.42405886  0.70573323  0.63360420    -0.23500
C841        C  0.41944102  0.71795941  0.59799746     0.19500
C842        C  0.40671316  0.73903636  0.59666417     0.24600
C843        C  0.39813155  0.74852458  0.63085551    -0.23400
C844        C  0.40431547  0.73767891  0.66658192     0.19500
F845        F  0.39748145  0.74691701  0.70052248    -0.13400
F846        F  0.42096749  0.70554128  0.70289815    -0.15700
F847        F  0.40159340  0.74899105  0.56155398    -0.15700
F848        F  0.42622382  0.70868662  0.56402466    -0.13400
C849        C  0.40547790  0.90853354  0.53318200     0.24600
C850        C  0.41743466  0.88689843  0.52873325    -0.23500
C851        C  0.42453222  0.88104654  0.49155195     0.19500
C852        C  0.41658801  0.89379449  0.45903631     0.24600
C853        C  0.39979397  0.91102758  0.46328715    -0.23400
C854        C  0.39609573  0.92000124  0.50067095     0.19500
F855        F  0.38090088  0.93744924  0.50579140    -0.13400
F856        F  0.39878262  0.91489546  0.56897187    -0.15700
F857        F  0.42148599  0.88551747  0.42336154    -0.15700
F858        F  0.43609669  0.86028339  0.48653565    -0.13400
C859        C  0.24081102  0.89651353  0.32805825     0.24600
C860        C  0.25791389  0.89989988  0.36288942    -0.23500
C861        C  0.25260923  0.91528675  0.39438653     0.19500
C862        C  0.22999597  0.92563139  0.39175601     0.24600
C863        C  0.21200716  0.92095757  0.35762469    -0.23400
C864        C  0.21815729  0.90692138  0.32549754     0.19500
F865        F  0.20075369  0.90117836  0.29237207    -0.13400
F866        F  0.24524300  0.88226934  0.29662218    -0.15700
F867        F  0.22501406  0.93939108  0.42325987    -0.15700
F868        F  0.26816441  0.91900559  0.42864588    -0.13400
C869        C  0.48503863  0.92533388  0.27447966     0.24600
C870        C  0.99528856  0.91029044  0.30213233    -0.23500
C871        C  0.47352925  0.88735726  0.32692896     0.19500
C872        C  0.44198145  0.88005783  0.32449852     0.24600
C873        C  0.43188198  0.89593308  0.29754262    -0.23400
C874        C  0.45378544  0.91839306  0.27227551     0.19500
F875        F  0.44545949  0.93524598  0.24691438    -0.13400
F876        F  0.50571869  0.94804467  0.25068824    -0.15700
F877        F  0.42134919  0.85755594  0.34849134    -0.15700
F878        F  0.98273721  0.87175398  0.35305042    -0.13400
C879        C  0.08701985  0.53351292  0.34307675     0.24600
C880        C  0.09583669  0.52422329  0.30867527    -0.23500
C881        C  0.09737726  0.54156514  0.27475549     0.19500
C882        C  0.08845893  0.56574992  0.27445274     0.24600
C883        C  0.07757976  0.57371345  0.30820138    -0.23400
C884        C  0.07823488  0.55801666  0.34288299     0.19500
F885        F  0.06945895  0.56559247  0.37657894    -0.13400
F886        F  0.08483715  0.51750605  0.37659551    -0.15700
F887        F  0.08935833  0.58037300  0.24018766    -0.15700
F888        F  0.10295823  0.03160708  0.23711895    -0.13400
C889        C  0.08333600  0.78010747  0.32323528     0.24600
C890        C  0.07358910  0.76234105  0.35790260    -0.23500
C891        C  0.07036071  0.77782337  0.39066082     0.19500
C892        C  0.07900986  0.81058004  0.38981781     0.24600
C893        C  0.09140243  0.82911910  0.35610754    -0.23400
C894        C  0.09229790  0.81300055  0.32241569     0.19500
F895        F  0.10320103  0.82921244  0.28886591    -0.13400
F896        F  0.08613474  0.76624332  0.29041194    -0.15700
F897        F  0.07613022  0.82421540  0.42278936    -0.15700
F898        F  0.05950596  0.76141778  0.42410196    -0.13400
C899        C  0.20527297  0.98619978  0.16426916     0.24600
C900        C  0.20755985  0.96239427  0.14256105    -0.23500
C901        C  0.18973076  0.93017242  0.15385124     0.19500
C902        C  0.16941696  0.92198989  0.18531642     0.24600
C903        C  0.16571371  0.94574405  0.20527332    -0.23400
C904        C  0.18443523  0.97796177  0.19490703     0.19500
F905        F  0.18250003  0.00166216  0.21447057    -0.13400
F906        F  0.22548779  0.51723707  0.15606484    -0.15700
F907        F  0.15227200  0.89071183  0.19506211    -0.15700
F908        F  0.19166763  0.90655285  0.13411762    -0.13400
C909        C  0.13718521  0.87386110  0.01810949     0.24600
C910        C  0.14370475  0.89260566  0.98405771    -0.23500
C911        C  0.12405172  0.87804122  0.95147490     0.19500
C912        C  0.09999383  0.84585685  0.95226589     0.24600
C913        C  0.09467730  0.82636787  0.98554202    -0.23400
C914        C  0.11325048  0.84145749  0.01883597     0.19500
F915        F  0.10949476  0.82438646  0.05183110    -0.13400
F916        F  0.15546143  0.88613609  0.05024714    -0.15700
F917        F  0.08212309  0.83366486  0.91979184    -0.15700
F918        F  0.12849302  0.89487199  0.91813340    -0.13400
C919        C  0.35501883  0.59819978  0.98964974     0.24600
C920        C  0.33911214  0.58502129  0.02456600    -0.23500
C921        C  0.35583404  0.59943079  0.05928327     0.19500
C922        C  0.38613861  0.62604666  0.05918147     0.24600
C923        C  0.40186648  0.63962584  0.02442654    -0.23400
C924        C  0.38575363  0.62473372  0.98960513     0.19500
F925        F  0.39902833  0.63689015  0.95510806    -0.13400
F926        F  0.34059290  0.58597864  0.95515575    -0.15700
F927        F  0.39980624  0.63904154  0.09378762    -0.15700
F928        F  0.34234985  0.58881654  0.09406700    -0.13400
C929        C  0.25257181  0.63042131  0.05328206     0.24600
C930        C  0.25355084  0.61407683  0.02005132    -0.23500
C931        C  0.26712423  0.63168478  0.98646041     0.19500
C932        C  0.28138232  0.66515007  0.98692147     0.24600
C933        C  0.28214583  0.68168547  0.02099260    -0.23400
C934        C  0.26641903  0.66375053  0.05367623     0.19500
F935        F  0.26461769  0.67832881  0.08645000    -0.13400
F936        F  0.23902842  0.61414550  0.08600027    -0.15700
F937        F  0.29541292  0.68122134  0.95433912    -0.15700
F938        F  0.26872155  0.61669775  0.95394830    -0.13400
C939        C  0.23319249  0.87101237  0.01787974     0.24600
C940        C  0.24806783  0.89414016  0.98901383    -0.23500
C941        C  0.26580496  0.88871343  0.96125236     0.19500
C942        C  0.26705002  0.85993669  0.96092428     0.24600
C943        C  0.25107014  0.83634736  0.98875220    -0.23400
C944        C  0.23485683  0.84244363  0.01785119     0.19500
F945        F  0.21882521  0.81987305  0.04476734    -0.13400
F946        F  0.21533079  0.87500744  0.04471236    -0.15700
F947        F  0.28363225  0.85500915  0.93310649    -0.15700
F948        F  0.28156938  0.91103062  0.93397205    -0.13400
C949        C  0.23685807  0.57258944  0.81507578     0.24600
C950        C  0.20531397  0.56105099  0.80341712    -0.23500
C951        C  0.18222642  0.53663899  0.82582334     0.19500
C952        C  0.19025849  0.52409025  0.85845171     0.24600
C953        C  0.22161531  0.53559915  0.87028643    -0.23400
C954        C  0.24487868  0.56029342  0.84844206     0.19500
F955        F  0.27544761  0.57162340  0.85845832    -0.13400
F956        F  0.25996094  0.59563130  0.79414638    -0.15700
F957        F  0.16703926  0.50053902  0.87874757    -0.15700
F958        F  0.15158137  0.52366299  0.81528544    -0.13400
C959        C  0.32427932  0.59005832  0.67698910     0.24600
C960        C  0.33833921  0.58726586  0.64284321    -0.23500
C961        C  0.31889382  0.57644961  0.60915058     0.19500
C962        C  0.28777510  0.57115522  0.60888892     0.24600
C963        C  0.27432467  0.57574815  0.64237352    -0.23400
C964        C  0.29283985  0.58424897  0.67678181     0.19500
F965        F  0.28120939  0.58899806  0.70998309    -0.13400
F966        F  0.34123120  0.59968019  0.71051071    -0.15700
F967        F  0.27095081  0.56210123  0.57520532    -0.15700
F968        F  0.33018061  0.57201689  0.57546731    -0.13400
C969        C  0.06366755  0.56755826  0.64996083     0.24600
C970        C  0.08277460  0.57151244  0.68318130    -0.23500
C971        C  0.07757699  0.58619463  0.71575122     0.19500
C972        C  0.05333066  0.59472142  0.71592452     0.24600
C973        C  0.03356630  0.58983962  0.68324410    -0.23400
C974        C  0.03967046  0.57666038  0.64998561     0.19500
F975        F  0.52090181  0.57033535  0.61811434    -0.13400
F976        F  0.06705176  0.55337274  0.61778723    -0.15700
F977        F  0.04875464  0.60716516  0.74887742    -0.15700
F978        F  0.09558970  0.59181377  0.74828788    -0.13400
C979        C  0.02579386  0.91094575  0.64086001     0.24600
C980        C  0.51366664  0.89296575  0.67474855    -0.23500
C981        C  0.03290313  0.89984552  0.70812676     0.19500
C982        C  0.06191119  0.92691381  0.70925951     0.24600
C983        C  0.07226157  0.94697138  0.67684417    -0.23400
C984        C  0.05474744  0.93804967  0.64209853     0.19500
F985        F  0.06312698  0.46008525  0.61004788    -0.13400
F986        F  0.50840135  0.90467723  0.60766220    -0.15700
F987        F  0.07895242  0.93462054  0.74283770    -0.15700
F988        F  0.52267154  0.88200987  0.74076371    -0.13400
C989        C  0.24015404  0.69700804  0.62246502     0.24600
C990        C  0.24206160  0.67801739  0.65306343    -0.23500
C991        C  0.25860292  0.69302689  0.68720314     0.19500
C992        C  0.27754963  0.72596808  0.68777487     0.24600
C993        C  0.28024682  0.74379823  0.65412682    -0.23400
C994        C  0.25935554  0.72986942  0.62305110     0.19500
F995        F  0.26016800  0.74756889  0.59152925    -0.13400
F996        F  0.22138211  0.68377359  0.59088143    -0.15700
F997        F  0.29658995  0.73945237  0.71903653    -0.15700
F998        F  0.25891192  0.67582826  0.71869243    -0.13400
C999        C  0.10279842  0.49972886  0.51768939     0.24600
C1000       C  0.13426021  0.51008914  0.52923396    -0.23500
C1001       C  0.15097220  0.99809678  0.50711243     0.19500
C1002       C  0.13750897  0.97730713  0.47562845     0.24600
C1003       C  0.10632081  0.96717895  0.46396161    -0.23400
C1004       C  0.08884977  0.97858934  0.48424227     0.19500
F1005       F  0.05902806  0.46919052  0.47578994    -0.13400
F1006       F  0.08518968  0.51028984  0.53655697    -0.15700
F1007       F  0.15533742  0.96750810  0.45588172    -0.15700
F1008       F  0.18111213  0.00693394  0.51719268    -0.13400
O1009       O  0.66838804  0.06781307  0.76185912    -0.79900
O1010       O  0.62995709  0.02984161  0.58998110    -0.64500
O1011       O  0.66347621  0.03807896  0.69270321    -1.11200
C1012       C  0.72665638  0.14223288  0.64688675     1.07000
O1013       O  0.67725510  0.04618881  0.56760831    -0.77800
O1014       O  0.73427442  0.08306385  0.60706309    -0.65300
Ni1015     Ni  0.63685661  0.03111119  0.73571930     1.34900
C1016       C  0.74308484  0.07576665  0.63888153     0.85800
O1017       O  0.61575062  0.49191922  0.64983999    -0.78300
O1018       O  0.60412384  0.49362591  0.71205652    -0.88600
C1019       C  0.64755608  0.02978495  0.56338319     0.85300
O1020       O  0.61754090  0.05648835  0.71807628    -0.66800
O1021       O  0.71849904  0.13076183  0.61263575    -0.86100
C1022       C  0.60639861  0.05819009  0.68497017     0.86200
C1023       C  0.59934297  0.47956435  0.67939153     1.07700
H1024       H  0.66458939  0.08994566  0.63782114     0.39500
O1025       O  0.67498801  0.07689448  0.63711337    -1.08700
O1026       O  0.72657575  0.06926303  0.66918592    -0.65400
Ni1027     Ni  0.69540819  0.08128103  0.68611496     1.26300
O1028       O  0.61341790  0.04775635  0.65467063    -0.65600
O1029       O  0.72363478  0.12530792  0.67721078    -0.77900
C1030       C  0.69585938  0.07148753  0.76586717     0.85600
O1031       O  0.71368872  0.08208870  0.73700524    -0.65100
Ni1032     Ni  0.69849790  0.08848939  0.59151958     1.27400
Ni1033     Ni  0.64472059  0.03385494  0.64251588     1.26100
H1034       H  0.67268637  0.02394563  0.69478789     0.40100
O1035       O  0.74982519  0.99805743  0.10262315    -0.79900
O1036       O  0.74926855  0.03702564  0.92834616    -0.64500
O1037       O  0.72756799  0.00818067  0.03251730    -1.11200
C1038       C  0.74213526  0.42166628  0.98435631     1.07000
O1039       O  0.71328104  0.49042473  0.90952439    -0.77800
O1040       O  0.68787866  0.43094749  0.94734336    -0.65300
Ni1041     Ni  0.75034084  0.03416101  0.07585572     1.34900
C1042       C  0.67376253  0.42468353  0.97936658     0.85800
O1043       O  0.73707711  0.06287671  0.99050473    -0.78300
O1044       O  0.75151691  0.07188369  0.05339065    -0.88600
C1045       C  0.72848536  0.01937466  0.90352327     0.85300
O1046       O  0.79225600  0.04814738  0.05778482    -0.66800
O1047       O  0.74405268  0.43433586  0.95092060    -0.86100
C1048       C  0.80386334  0.05971875  0.02490224     0.86200
C1049       C  0.74610894  0.08082351  0.02045507     1.07700
H1050       H  0.76799435  0.49380812  0.97718922     0.39500
O1051       O  0.74595893  0.48750616  0.97664794    -1.08700
O1052       O  0.68579007  0.44327724  0.00870280    -0.65400
Ni1053     Ni  0.72987429  0.46833479  0.02522178     1.26300
O1054       O  0.78651399  0.05187414  0.99400225    -0.65600
O1055       O  0.73481017  0.43129653  0.01506807    -0.77900
C1056       C  0.72519056  0.46999462  0.10552090     0.85600
O1057       O  0.71399680  0.45239096  0.07575791    -0.65100
Ni1058     Ni  0.72892690  0.46261751  0.93139116     1.27400
Ni1059     Ni  0.74122685  0.02519626  0.98206060     1.26100
H1060       H  0.70593815  0.00315750  0.03471532     0.40100
O1061       O  0.59599363  0.41972893  0.43097265    -0.79900
O1062       O  0.64039913  0.41873740  0.26329912    -0.64500
O1063       O  0.62798378  0.44196150  0.36455270    -1.11200
C1064       C  0.53018084  0.42146164  0.30531715     1.07000
O1065       O  0.62800399  0.45494774  0.23965058    -0.77800
O1066       O  0.59201908  0.47929186  0.27391827    -0.65300
Ni1067     Ni  0.63166644  0.41967155  0.40921827     1.34900
C1068       C  0.59783590  0.49351515  0.30640272     0.85800
O1069       O  0.67498830  0.43348339  0.32871701    -0.78300
O1070       O  0.66812794  0.41833174  0.39095654    -0.88600
C1071       C  0.64334553  0.43926100  0.23746275     0.85300
O1072       O  0.60546004  0.37739162  0.38981100    -0.66800
O1073       O  0.54271835  0.42140127  0.27308423    -0.86100
C1074       C  0.60469664  0.36519665  0.35692931     0.86200
C1075       C  0.68350976  0.42475974  0.35980642     1.07700
H1076       H  0.57899514  0.39897358  0.30405931     0.39500
O1077       O  0.59300584  0.42172702  0.30471103    -1.08700
O1078       O  0.60298352  0.48132783  0.33694827    -0.65400
Ni1079     Ni  0.58673625  0.43700709  0.35260096     1.26300
O1080       O  0.61677135  0.38252714  0.32713324    -0.65600
O1081       O  0.54493790  0.42902738  0.33808031    -0.77900
C1082       C  0.59335730  0.44502144  0.43245257     0.85600
O1083       O  0.58390519  0.45363484  0.40234870    -0.65100
Ni1084     Ni  0.58534274  0.43785022  0.25776648     1.27400
Ni1085     Ni  0.63422499  0.42807902  0.31537707     1.26100
H1086       H  0.64257774  0.46441298  0.36763394     0.40100
O1087       O  0.88811009  0.33470474  0.55451831    -0.79900
O1088       O  0.85924568  0.28708558  0.72938216    -0.64500
O1089       O  0.87407557  0.33016129  0.63276427    -1.11200
C1090       C  0.97884702  0.37497013  0.67756216     1.07000
O1091       O  0.88839948  0.33223327  0.76060383    -0.77800
O1092       O  0.92430397  0.38679636  0.72392517    -0.65300
Ni1093     Ni  0.85748667  0.30367567  0.58797312     1.34900
C1094       C  0.92180085  0.39918920  0.69240048     0.85800
O1095       O  0.82270624  0.28953213  0.67311667    -0.78300
O1096       O  0.82281861  0.27061176  0.61468567    -0.88600
C1097       C  0.86539864  0.30423118  0.75933695     0.85300
O1098       O  0.88342926  0.28419464  0.59906804    -0.66800
O1099       O  0.96797440  0.36782782  0.71161695    -0.86100
C1100       C  0.88223145  0.26865701  0.62980357     0.86200
C1101       C  0.80910994  0.27019703  0.64579463     1.07700
H1102       H  0.91708011  0.31100702  0.68474235     0.39500
O1103       O  0.90992751  0.32680982  0.68658385    -1.08700
O1104       O  0.91863549  0.38634652  0.65965772    -0.65400
Ni1105     Ni  0.91831140  0.34941767  0.63893567     1.26300
O1106       O  0.86799616  0.27049764  0.65958271    -0.65600
O1107       O  0.96203536  0.36793944  0.64680304    -0.77900
C1108       C  0.91017503  0.36292821  0.55970708     0.85600
O1109       O  0.92509917  0.37249093  0.59153066    -0.65100
Ni1110     Ni  0.92750295  0.34898135  0.73399491     1.27400
Ni1111     Ni  0.86623002  0.30768885  0.68052273     1.26100
H1112       H  0.86666741  0.34584462  0.63342348     0.40100
O1113       O  0.80189064  0.27399389  0.10372860    -0.79900
O1114       O  0.80307129  0.25616439  0.92203794    -0.64500
O1115       O  0.80046143  0.28342208  0.02434300    -1.11200
C1116       C  0.69304927  0.22265631  0.00659479     1.07000
O1117       O  0.76530522  0.26513531  0.89859531    -0.77800
O1118       O  0.74564286  0.29134048  0.95168740    -0.65300
Ni1119     Ni  0.82703404  0.27682751  0.06097323     1.34900
C1120       C  0.74806448  0.30363013  0.98476417     0.85800
O1121       O  0.84513541  0.29812647  0.96913836    -0.78300
O1122       O  0.85717145  0.28121492  0.02369480    -0.88600
C1123       C  0.79006271  0.26291271  0.89424631     0.85300
O1124       O  0.80351324  0.23189247  0.05278234    -0.66800
O1125       O  0.69912071  0.23199482  0.97166893    -0.86100
C1126       C  0.79971182  0.21796923  0.02037386     0.86200
C1127       C  0.86431627  0.29447596  0.99075376     1.07700
H1128       H  0.75397576  0.22055571  0.97666819     0.39500
O1129       O  0.75894815  0.24284190  0.97713856    -1.08700
O1130       O  0.74857506  0.28970270  0.01608434    -0.65400
Ni1131     Ni  0.75679428  0.25496761  0.02936756     1.26300
O1132       O  0.80831391  0.23385482  0.98900883    -0.65600
O1133       O  0.71352210  0.22665980  0.03240603    -0.77900
C1134       C  0.77567487  0.27289413  0.10880959     0.85600
O1135       O  0.75570729  0.26730529  0.08170362    -0.65100
Ni1136     Ni  0.73374523  0.24847328  0.93778343     1.27400
Ni1137     Ni  0.80213430  0.26991476  0.97291097     1.26100
H1138       H  0.80504307  0.30540965  0.02449280     0.40100
O1139       O  0.85117314  0.40533170  0.43588355    -0.79900
O1140       O  0.78658141  0.33873784  0.27865604    -0.64500
O1141       O  0.83500563  0.36625350  0.37160557    -1.11200
C1142       C  0.88771144  0.46115027  0.29758790     1.07000
O1143       O  0.83035170  0.35556795  0.24636901    -0.77800
O1144       O  0.88978782  0.40070882  0.26882584    -0.65300
Ni1145     Ni  0.81522667  0.36675611  0.41811310     1.34900
C1146       C  0.90148908  0.39522180  0.29934724     0.85800
O1147       O  0.78468737  0.31141774  0.34706310    -0.78300
O1148       O  0.77781145  0.32764981  0.40478109    -0.88600
C1149       C  0.80106546  0.33753283  0.24923928     0.85300
O1150       O  0.79764539  0.39210395  0.39661118    -0.66800
O1151       O  0.87126323  0.44565355  0.26820504    -0.86100
C1152       C  0.77932398  0.38491725  0.36731977     0.86200
C1153       C  0.76907222  0.30697472  0.37748760     1.07700
H1154       H  0.82352257  0.40679199  0.30990984     0.39500
O1155       O  0.83482948  0.39466427  0.30879239    -1.08700
O1156       O  0.88784479  0.38947083  0.33142221    -0.65400
Ni1157     Ni  0.86288667  0.40714996  0.35153588     1.26300
O1158       O  0.77880508  0.36573125  0.34133840    -0.65600
O1159       O  0.88926103  0.44819011  0.32970045    -0.77900
C1160       C  0.87944995  0.41237830  0.43011317     0.85600
O1161       O  0.88979473  0.41680665  0.39603249    -0.65100
Ni1162     Ni  0.85080803  0.40066942  0.25832740     1.27400
Ni1163     Ni  0.80936217  0.35248530  0.32641088     1.26100
H1164       H  0.84539946  0.35332438  0.37544474     0.40100
O1165       O  0.92470208  0.08551734  0.56448573    -0.79900
O1166       O  0.93212864  0.13745394  0.73076600    -0.64500
O1167       O  0.94986353  0.12277101  0.62804179    -1.11200
C1168       C  0.93753054  0.02614171  0.68756457     1.07000
O1169       O  0.97001623  0.12654095  0.74948276    -0.77800
O1170       O  0.99241038  0.08822760  0.71693300    -0.65300
Ni1171     Ni  0.92519022  0.12327404  0.58454678     1.34900
C1172       C  0.50565132  0.09456917  0.68439138     0.85800
O1173       O  0.94086139  0.17057337  0.66397323    -0.78300
O1174       O  0.92447418  0.16145854  0.60177529    -0.88600
C1175       C  0.95386148  0.14092766  0.75484830     0.85300
O1176       O  0.88448105  0.09779446  0.60563510    -0.66800
O1177       O  0.93586175  0.03840965  0.71970458    -0.86100
C1178       C  0.87390280  0.09909623  0.63857577     0.86200
C1179       C  0.93092671  0.17794168  0.63286949     1.07700
H1180       H  0.91237083  0.07348539  0.68919565     0.39500
O1181       O  0.93434891  0.08855136  0.68818086    -1.08700
O1182       O  0.99305042  0.10082259  0.65479761    -0.65400
Ni1183     Ni  0.94857946  0.08214431  0.64026526     1.26300
O1184       O  0.89228019  0.11089418  0.66818814    -0.65600
O1185       O  0.94431391  0.04116648  0.65519462    -0.77900
C1186       C  0.94982779  0.08394937  0.56030475     0.85600
O1187       O  0.96254825  0.07848851  0.58983133    -0.65100
Ni1188     Ni  0.95258243  0.08240274  0.73397917     1.27400
Ni1189     Ni  0.93794226  0.12983721  0.67767077     1.26100
H1190       H  0.97125255  0.13863901  0.62388878     0.40100
O1191       O  0.51492170  0.23625833  0.90389428    -0.79900
O1192       O  0.54095506  0.24425564  0.08037975    -0.64500
O1193       O  0.51584882  0.21323458  0.97776100    -1.11200
C1194       C  0.94374014  0.24946299  0.00216309     1.07000
O1195       O  0.99301240  0.21220016  0.09920985    -0.77800
O1196       O  0.93820659  0.18846389  0.05310456    -0.65300
Ni1197     Ni  0.54478401  0.23104240  0.93677185     1.34900
C1198       C  0.93225246  0.17047982  0.02355259     0.85800
O1199       O  0.56235562  0.21868491  0.02910975    -0.78300
O1200       O  0.57567410  0.22496603  0.96637708    -0.88600
C1201       C  0.52260740  0.22603879  0.10574526     0.85300
O1202       O  0.56416724  0.27616204  0.95004391    -0.66800
O1203       O  0.95038064  0.24961716  0.03835981    -0.86100
C1204       C  0.57165419  0.29053794  0.98259064     0.86200
C1205       C  0.57907534  0.21850737  0.00164072     1.07700
H1206       H  0.50677222  0.26380919  0.02183845     0.39500
O1207       O  0.99776633  0.24090364  0.02513728    -1.08700
O1208       O  0.95077085  0.17913514  0.99477570    -0.65400
Ni1209     Ni  0.98133163  0.22188076  0.97613515     1.26300
O1210       O  0.56100971  0.27499899  0.01405955    -0.65600
O1211       O  0.94983841  0.23447714  0.97614732    -0.77900
C1212       C  0.98731511  0.21386366  0.89764458     0.85600
O1213       O  0.96827634  0.20381022  0.92531206    -0.65100
Ni1214     Ni  0.97117063  0.23036966  0.06769484     1.27400
Ni1215     Ni  0.53058203  0.23064481  0.02811056     1.26100
H1216       H  0.50830969  0.19037625  0.97848773     0.40100
O1217       O  0.57936685  0.16535784  0.23444226    -0.79900
O1218       O  0.52543919  0.11332045  0.39548982    -0.64500
O1219       O  0.54469024  0.15423129  0.29700476    -1.11200
C1220       C  0.63906679  0.21990855  0.36643138     1.07000
O1221       O  0.53694790  0.16083188  0.41891336    -0.77800
O1222       O  0.57724220  0.22129053  0.39099283    -0.65300
Ni1223     Ni  0.54164158  0.13069399  0.25129390     1.34900
C1224       C  0.57242403  0.23064406  0.35819094     0.85800
O1225       O  0.99454519  0.10230858  0.32751637    -0.78300
O1226       O  0.00284454  0.09495549  0.26576215    -0.88600
C1227       C  0.52250982  0.13040784  0.42163558     0.85300
O1228       O  0.56476205  0.11014216  0.27089235    -0.66800
O1229       O  0.62403834  0.20670948  0.39699722    -0.86100
C1230       C  0.56321502  0.09619829  0.30295967     0.86200
C1231       C  0.98577926  0.08732948  0.29555750     1.07700
H1232       H  0.58921220  0.15232117  0.36093782     0.39500
O1233       O  0.57610231  0.16256336  0.35931796    -1.08700
O1234       O  0.56851334  0.21439674  0.32773737    -0.65400
Ni1235     Ni  0.58560967  0.18689579  0.31303375     1.26300
O1236       O  0.55048079  0.10114674  0.33245080    -0.65600
O1237       O  0.62649848  0.21713438  0.33253029    -0.77900
C1238       C  0.58179017  0.19313373  0.23401996     0.85600
O1239       O  0.59201233  0.20978868  0.26456583    -0.65100
Ni1240     Ni  0.58067053  0.18392407  0.40692523     1.27400
Ni1241     Ni  0.53516084  0.13179635  0.34465110     1.26100
H1242       H  0.53095320  0.16362979  0.29345779     0.40100
C1243       C  0.53682708  0.18013346  0.18771167     0.24600
C1244       C  0.56640802  0.20261453  0.20242578    -0.23500
C1245       C  0.58007860  0.23387455  0.18748725     0.19500
C1246       C  0.56551371  0.24176374  0.15668346     0.24600
C1247       C  0.53639004  0.21884907  0.14109762    -0.23400
C1248       C  0.52199164  0.18815651  0.15761835     0.19500
F1249       F  0.99408355  0.16529859  0.14354177    -0.13400
F1250       F  0.52175342  0.15030031  0.20290765    -0.15700
F1251       F  0.57996306  0.27187282  0.14201499    -0.15700
F1252       F  0.60793442  0.25653241  0.20193116    -0.13400
C1253       C  0.93913187  0.16542973  0.81015161     0.24600
C1254       C  0.96207774  0.16268041  0.78879609    -0.23500
C1255       C  0.99336062  0.17905690  0.80198758     0.19500
C1256       C  0.50144324  0.19686354  0.83620670     0.24600
C1257       C  0.97842696  0.19842215  0.85876708    -0.23400
C1258       C  0.94715974  0.18280096  0.84511592     0.19500
F1259       F  0.92431513  0.18398700  0.86579687    -0.13400
F1260       F  0.90874686  0.14991341  0.79830145    -0.15700
F1261       F  0.53179695  0.21107991  0.84833550    -0.15700
F1262       F  0.51633600  0.17742928  0.78202039    -0.13400
C1263       C  0.48410888  0.07885530  0.50967561     0.24600
C1264       C  0.96605353  0.09284224  0.52274705    -0.23500
C1265       C  0.96575274  0.11806788  0.50121237     0.19500
C1266       C  0.98335614  0.12938740  0.46783479     0.24600
C1267       C  0.50153434  0.11564228  0.45475290    -0.23400
C1268       C  0.50131771  0.08982688  0.47555915     0.19500
F1269       F  0.51908326  0.07642622  0.46407953    -0.13400
F1270       F  0.48546859  0.05495506  0.53019331    -0.15700
F1271       F  0.98296222  0.15428934  0.44850654    -0.15700
F1272       F  0.94996532  0.13331651  0.51383799    -0.13400
C1273       C  0.72481657  0.25969842  0.34558295     0.24600
C1274       C  0.73754995  0.27928610  0.37861210    -0.23500
C1275       C  0.71783360  0.27601473  0.40948499     0.19500
C1276       C  0.68582502  0.25623349  0.40571560     0.24600
C1277       C  0.67293789  0.23924968  0.37114246    -0.23400
C1278       C  0.69273898  0.24004385  0.34185250     0.19500
F1279       F  0.68102239  0.22191034  0.30945622    -0.13400
F1280       F  0.74302923  0.26064601  0.31585608    -0.15700
F1281       F  0.66732154  0.25511213  0.43520285    -0.15700
F1282       F  0.72908867  0.29331357  0.44256827    -0.13400
C1283       C  0.91629139  0.01323311  0.32932846     0.24600
C1284       C  0.90694581  0.49582685  0.29438300    -0.23500
C1285       C  0.92066851  0.50991004  0.25917677     0.19500
C1286       C  0.94403445  0.04078845  0.25925328     0.24600
C1287       C  0.95544015  0.05808279  0.29408107    -0.23400
C1288       C  0.93986260  0.04464500  0.32872297     0.19500
F1289       F  0.94882125  0.06082855  0.36281621    -0.13400
F1290       F  0.89979053  0.50235979  0.36164043    -0.15700
F1291       F  0.45698016  0.05362856  0.22480555    -0.15700
F1292       F  0.91283544  0.49258569  0.22590786    -0.13400
C1293       C  0.78138180  0.27047481  0.17998054     0.24600
C1294       C  0.77042338  0.28110587  0.14790687    -0.23500
C1295       C  0.76308866  0.30621052  0.15274439     0.19500
C1296       C  0.77006540  0.32278418  0.18793332     0.24600
C1297       C  0.78454141  0.31447958  0.21824923    -0.23400
C1298       C  0.78864889  0.28726788  0.21488685     0.19500
F1299       F  0.80225048  0.27870754  0.24422714    -0.13400
F1300       F  0.78805667  0.24584276  0.17621364    -0.15700
F1301       F  0.76583649  0.34902114  0.19102217    -0.15700
F1302       F  0.75324296  0.31744926  0.12207852    -0.13400
C1303       C  0.91925764  0.31315575  0.00061728     0.24600
C1304       C  0.89338535  0.29887355  0.97540907    -0.23500
C1305       C  0.89030435  0.27434588  0.95045679     0.19500
C1306       C  0.90770333  0.25854860  0.95813759     0.24600
C1307       C  0.92921934  0.26867687  0.98932930    -0.23400
C1308       C  0.93688163  0.29763759  0.00823889     0.19500
F1309       F  0.95964711  0.30946141  0.03614750    -0.13400
F1310       F  0.92309337  0.33785533  0.02366793    -0.15700
F1311       F  0.90076749  0.23126689  0.93838008    -0.15700
F1312       F  0.86580928  0.26097739  0.92498419    -0.13400
C1313       C  0.63784053  0.19000392  0.99010986     0.24600
C1314       C  0.66060456  0.20971216  0.01717214    -0.23500
C1315       C  0.65312061  0.22600337  0.04533675     0.19500
C1316       C  0.62480227  0.22668027  0.04234052     0.24600
C1317       C  0.60427523  0.21115996  0.01114848    -0.23400
C1318       C  0.60987961  0.19112952  0.98667539     0.19500
F1319       F  0.58943165  0.17476281  0.95755767    -0.13400
F1320       F  0.64459192  0.17336783  0.96352429    -0.15700
F1321       F  0.61930324  0.24570974  0.06672317    -0.15700
F1322       F  0.67495482  0.24526491  0.07167546    -0.13400
C1323       C  0.81596073  0.25139593  0.83967946     0.24600
C1324       C  0.80598393  0.27154911  0.85713801    -0.23500
C1325       C  0.81475331  0.30200900  0.84155991     0.19500
C1326       C  0.83427619  0.31268169  0.80976943     0.24600
C1327       C  0.84442070  0.29259566  0.79235893    -0.23400
C1328       C  0.83463531  0.26165716  0.80700709     0.19500
F1329       F  0.84444985  0.24204777  0.79083698    -0.13400
F1330       F  0.80792909  0.22199309  0.85462008    -0.15700
F1331       F  0.84336899  0.34269117  0.79606532    -0.15700
F1332       F  0.80587521  0.32210457  0.85852773    -0.13400
C1333       C  0.90685247  0.43904610  0.71720165     0.24600
C1334       C  0.92464094  0.43107146  0.69261973    -0.23500
C1335       C  0.94540623  0.45380125  0.66692115     0.19500
C1336       C  0.94819375  0.48424762  0.66538109     0.24600
C1337       C  0.93006941  0.49235720  0.68939595    -0.23400
C1338       C  0.90938132  0.46961103  0.71543518     0.19500
F1339       F  0.89541710  0.97837076  0.73888814    -0.13400
F1340       F  0.88666538  0.41710377  0.74210027    -0.15700
F1341       F  0.96965467  0.50619242  0.64159631    -0.15700
F1342       F  0.96382683  0.44677337  0.64418315    -0.13400
C1343       C  0.91468373  0.21403501  0.66738017     0.24600
C1344       C  0.92367533  0.20517987  0.63303151    -0.23500
C1345       C  0.92076468  0.21906444  0.59793396     0.19500
C1346       C  0.90791597  0.24002355  0.59695832     0.24600
C1347       C  0.89736488  0.24758225  0.63103823    -0.23400
C1348       C  0.90171141  0.23492018  0.66641953     0.19500
F1349       F  0.89295568  0.24223045  0.70031706    -0.13400
F1350       F  0.91660397  0.20099224  0.70182245    -0.15700
F1351       F  0.90491042  0.25199498  0.56220549    -0.15700
F1352       F  0.92954354  0.21167175  0.56409334    -0.13400
C1353       C  0.90278258  0.40720355  0.53295638     0.24600
C1354       C  0.91518326  0.38597946  0.52843075    -0.23500
C1355       C  0.92294503  0.38066465  0.49137655     0.19500
C1356       C  0.91556489  0.39389939  0.45890918     0.24600
C1357       C  0.89877554  0.41112476  0.46309028    -0.23400
C1358       C  0.89409767  0.41924217  0.50047095     0.19500
F1359       F  0.87839333  0.43619665  0.50548745    -0.13400
F1360       F  0.89496392  0.41256670  0.56860118    -0.15700
F1361       F  0.92096147  0.38609518  0.42324451    -0.15700
F1362       F  0.93479354  0.36013681  0.48637618    -0.13400
C1363       C  0.74099503  0.39665709  0.32892125     0.24600
C1364       C  0.75709120  0.39831278  0.36404977    -0.23500
C1365       C  0.75056364  0.41160126  0.39669342     0.19500
C1366       C  0.72798369  0.42196813  0.39460535     0.24600
C1367       C  0.71127013  0.41942896  0.35986762    -0.23400
C1368       C  0.71839706  0.40712975  0.32687295     0.19500
F1369       F  0.70203812  0.40318725  0.29319302    -0.13400
F1370       F  0.74644603  0.38413329  0.29661387    -0.15700
F1371       F  0.72181408  0.43364806  0.42714064    -0.15700
F1372       F  0.76487524  0.41320595  0.43141445    -0.13400
C1373       C  0.98660854  0.42809506  0.27563375     0.24600
C1374       C  0.49690654  0.41335286  0.30364064    -0.23500
C1375       C  0.97519868  0.39077432  0.32880167     0.19500
C1376       C  0.94363383  0.38335094  0.32616850     0.24600
C1377       C  0.93337770  0.39855684  0.29843603    -0.23400
C1378       C  0.95526464  0.42082241  0.27300615     0.19500
F1379       F  0.94679077  0.43711312  0.24697853    -0.13400
F1380       F  0.00729903  0.45078792  0.25184029    -0.15700
F1381       F  0.92312312  0.36131348  0.35068891    -0.15700
F1382       F  0.48444960  0.37555692  0.35543139    -0.13400
C1383       C  0.58360286  0.03088093  0.33914184     0.24600
C1384       C  0.59261492  0.02169375  0.30482692    -0.23500
C1385       C  0.59428521  0.03915343  0.27093789     0.19500
C1386       C  0.58613345  0.06396603  0.27087937     0.24600
C1387       C  0.57565909  0.07227396  0.30476067    -0.23400
C1388       C  0.57545171  0.05584241  0.33915825     0.19500
F1389       F  0.56643618  0.06315923  0.37284038    -0.13400
F1390       F  0.58062009  0.01433535  0.37241384    -0.15700
F1391       F  0.58753456  0.07901940  0.23679859    -0.15700
F1392       F  0.60643987  0.53431817  0.24103332    -0.13400
C1393       C  0.58682881  0.28187530  0.32156107     0.24600
C1394       C  0.57405179  0.26292431  0.35475119    -0.23500
C1395       C  0.56719026  0.27695716  0.38622914     0.19500
C1396       C  0.57506937  0.30956781  0.38580778     0.24600
C1397       C  0.59069459  0.32936390  0.35411259    -0.23400
C1398       C  0.59524173  0.31461913  0.32133215     0.19500
F1399       F  0.60945464  0.33210503  0.28961004    -0.13400
F1400       F  0.59340679  0.26938220  0.29008758    -0.15700
F1401       F  0.56813511  0.32185713  0.41718137    -0.15700
F1402       F  0.55338569  0.25922274  0.41794166    -0.13400
C1403       C  0.70709998  0.48599621  0.16510486     0.24600
C1404       C  0.70732025  0.46156818  0.14231794    -0.23500
C1405       C  0.68748497  0.42947900  0.15269682     0.19500
C1406       C  0.66744984  0.42212801  0.18437863     0.24600
C1407       C  0.66619822  0.44664444  0.20578797    -0.23400
C1408       C  0.68665262  0.47863001  0.19612327     0.19500
F1409       F  0.68687838  0.50295180  0.21682822    -0.13400
F1410       F  0.72181654  0.01752030  0.15432935    -0.15700
F1411       F  0.64820359  0.39099533  0.19299742    -0.15700
F1412       F  0.68724588  0.40517817  0.13194404    -0.13400
C1413       C  0.63582490  0.37462317  0.01685303     0.24600
C1414       C  0.64351117  0.39299034  0.98243939    -0.23500
C1415       C  0.62493490  0.37797133  0.94918283     0.19500
C1416       C  0.60108261  0.34564956  0.94969466     0.24600
C1417       C  0.59457514  0.32659365  0.98353677    -0.23400
C1418       C  0.61190467  0.34220127  0.01741065     0.19500
F1419       F  0.60695778  0.32560674  0.05099288    -0.13400
F1420       F  0.65289876  0.38730471  0.04973021    -0.15700
F1421       F  0.58462087  0.33290993  0.91642490    -0.15700
F1422       F  0.63024233  0.39448341  0.91546958    -0.13400
C1423       C  0.85359349  0.09921257  0.98846555     0.24600
C1424       C  0.83853386  0.08500873  0.02350155    -0.23500
C1425       C  0.85625136  0.09803662  0.05808116     0.19500
C1426       C  0.88676871  0.12431620  0.05773962     0.24600
C1427       C  0.90151910  0.13900133  0.02288679    -0.23400
C1428       C  0.88438784  0.12552603  0.98818112     0.19500
F1429       F  0.89664990  0.13904915  0.95373555    -0.13400
F1430       F  0.83817284  0.08841641  0.95414111    -0.15700
F1431       F  0.90167642  0.13590837  0.09220598    -0.15700
F1432       F  0.84365424  0.08633336  0.09302408    -0.13400
C1433       C  0.75063529  0.13108492  0.04856324     0.24600
C1434       C  0.75434303  0.11490760  0.01688920    -0.23500
C1435       C  0.77212879  0.13277130  0.98548265     0.19500
C1436       C  0.78711067  0.16626068  0.98654471     0.24600
C1437       C  0.78431853  0.18251793  0.01895164    -0.23400
C1438       C  0.76526704  0.16446177  0.04951371     0.19500
F1439       F  0.76076066  0.17902499  0.08057714    -0.13400
F1440       F  0.73350383  0.11450898  0.07926857    -0.15700
F1441       F  0.80546548  0.18264682  0.95659509    -0.15700
F1442       F  0.77706022  0.11789266  0.95506223    -0.13400
C1443       C  0.73471026  0.37158402  0.01790718     0.24600
C1444       C  0.74728942  0.39341317  0.98713516    -0.23500
C1445       C  0.76255374  0.38650576  0.95739170     0.19500
C1446       C  0.76351071  0.35759993  0.95719389     0.24600
C1447       C  0.74958741  0.33523413  0.98691294    -0.23400
C1448       C  0.73601172  0.34283605  0.01784940     0.19500
F1449       F  0.72231395  0.32164447  0.04695389    -0.13400
F1450       F  0.71956120  0.37706119  0.04707250    -0.15700
F1451       F  0.77796165  0.35143124  0.92776024    -0.15700
F1452       F  0.77621571  0.40746682  0.92807266    -0.13400
C1453       C  0.73659748  0.07002029  0.81288586     0.24600
C1454       C  0.70511225  0.05995729  0.80215236    -0.23500
C1455       C  0.68176284  0.03637816  0.82521127     0.19500
C1456       C  0.68954013  0.02351322  0.85781369     0.24600
C1457       C  0.72088608  0.03391829  0.86892794    -0.23400
C1458       C  0.74436013  0.05741814  0.84613369     0.19500
F1459       F  0.77486441  0.06723414  0.85514411    -0.13400
F1460       F  0.75992326  0.09190792  0.79113591    -0.15700
F1461       F  0.66613869  0.00085719  0.87882706    -0.15700
F1462       F  0.65107547  0.02460351  0.81544688    -0.13400
C1463       C  0.82583079  0.09409306  0.67434001     0.24600
C1464       C  0.83895283  0.08825465  0.64115516    -0.23500
C1465       C  0.81872370  0.07523669  0.60841596     0.19500
C1466       C  0.78758168  0.07008497  0.60818058     0.24600
C1467       C  0.77481669  0.07674088  0.64093935    -0.23400
C1468       C  0.79435354  0.08817403  0.67431569     0.19500
F1469       F  0.78367962  0.09582618  0.70640119    -0.13400
F1470       F  0.84382990  0.10710814  0.70650332    -0.15700
F1471       F  0.77000153  0.05899615  0.57527515    -0.15700
F1472       F  0.82922393  0.06828808  0.57565787    -0.13400
C1473       C  0.56483194  0.06828657  0.64884708     0.24600
C1474       C  0.58359517  0.07193925  0.68232460    -0.23500
C1475       C  0.57882200  0.08729976  0.71451440     0.19500
C1476       C  0.55508017  0.09654922  0.71417018     0.24600
C1477       C  0.53541187  0.09163347  0.68136262    -0.23400
C1478       C  0.54130162  0.07802841  0.64836446     0.19500
F1479       F  0.02269659  0.07183782  0.61632937    -0.13400
F1480       F  0.56804711  0.05373399  0.61692045    -0.15700
F1481       F  0.55075832  0.10956384  0.74680940    -0.15700
F1482       F  0.59668952  0.09282638  0.74717593    -0.13400
C1483       C  0.52444227  0.41391496  0.64037798     0.24600
C1484       C  0.01266654  0.39531746  0.67400545    -0.23500
C1485       C  0.53247938  0.40127635  0.70668279     0.19500
C1486       C  0.56200385  0.42762544  0.70735277     0.24600
C1487       C  0.57219093  0.44813460  0.67536123    -0.23400
C1488       C  0.55395696  0.44030190  0.64120579     0.19500
F1489       F  0.56389368  0.95741000  0.61056405    -0.13400
F1490       F  0.00640108  0.40887040  0.60794974    -0.15700
F1491       F  0.57986122  0.43426543  0.74019522    -0.15700
F1492       F  0.02253431  0.38317087  0.73915024    -0.13400
C1493       C  0.73948358  0.19600991  0.61987033     0.24600
C1494       C  0.74041304  0.17710795  0.65118321    -0.23500
C1495       C  0.75569898  0.19226660  0.68589543     0.19500
C1496       C  0.77483718  0.22518072  0.68648943     0.24600
C1497       C  0.77882123  0.24284204  0.65237040    -0.23400
C1498       C  0.75876139  0.22885848  0.62055204     0.19500
F1499       F  0.76057568  0.24643977  0.58851707    -0.13400
F1500       F  0.72170499  0.18272034  0.58757213    -0.15700
F1501       F  0.79284219  0.23874390  0.71851214    -0.15700
F1502       F  0.75456558  0.17522887  0.71816710    -0.13400
C1503       C  0.60210080  0.99895252  0.51646473     0.24600
C1504       C  0.63342977  0.00896659  0.52842575    -0.23500
C1505       C  0.65163148  0.49879378  0.50827304     0.19500
C1506       C  0.63781602  0.47718877  0.47757628     0.24600
C1507       C  0.60652847  0.46685420  0.46621943    -0.23400
C1508       C  0.58923734  0.47865315  0.48618536     0.19500
F1509       F  0.55876606  0.96939708  0.47345190    -0.13400
F1510       F  0.58432233  0.00912011  0.53565021    -0.15700
F1511       F  0.65540082  0.46686918  0.45819730    -0.15700
F1512       F  0.68193932  0.50806545  0.51790166    -0.13400
O1513       O  0.66811164  0.56778317  0.76279235    -0.79900
O1514       O  0.63086342  0.53173789  0.59009677    -0.64500
O1515       O  0.66360181  0.53880025  0.69295661    -1.11200
C1516       C  0.72790188  0.64316185  0.64852529     1.07000
O1517       O  0.67816634  0.54778970  0.56799084    -0.77800
O1518       O  0.73473455  0.58357002  0.60843823    -0.65300
Ni1519     Ni  0.63677794  0.53138594  0.73573846     1.34900
C1520       C  0.74306599  0.57574258  0.64022841     0.85800
O1521       O  0.61531852  0.99080154  0.65062572    -0.78300
O1522       O  0.60403250  0.99304493  0.71286177    -0.88600
C1523       C  0.64847692  0.53140121  0.56373621     0.85300
O1524       O  0.61752743  0.55687786  0.71838331    -0.66800
O1525       O  0.71994240  0.63195461  0.61414450    -0.86100
C1526       C  0.60624769  0.55855538  0.68536340     0.86200
C1527       C  0.59914036  0.97865898  0.68041633     1.07700
H1528       H  0.66526733  0.59125912  0.63854981     0.39500
O1529       O  0.67560090  0.57814553  0.63785337    -1.08700
O1530       O  0.72652224  0.56955027  0.67041010    -0.65400
Ni1531     Ni  0.69564384  0.58198412  0.68704770     1.26300
O1532       O  0.61364547  0.54867599  0.65487398    -0.65600
O1533       O  0.72424631  0.62599464  0.67876412    -0.77900
C1534       C  0.69574741  0.57187850  0.76685393     0.85600
O1535       O  0.71357198  0.58240733  0.73799887    -0.65100
Ni1536     Ni  0.69957088  0.58985894  0.59254009     1.27400
Ni1537     Ni  0.64521826  0.53510077  0.64261851     1.26100
H1538       H  0.67274576  0.52459966  0.69488737     0.40100
O1539       O  0.75028543  0.49631887  0.10243998    -0.79900
O1540       O  0.74992169  0.53797259  0.92960419    -0.64500
O1541       O  0.72806900  0.50768461  0.03324869    -1.11200
C1542       C  0.74259564  0.92212922  0.98565958     1.07000
O1543       O  0.71247471  0.98919300  0.90922187    -0.77800
O1544       O  0.68775074  0.93016954  0.94824508    -0.65300
Ni1545     Ni  0.75121672  0.53302252  0.07679850     1.34900
C1546       C  0.67378655  0.92428409  0.98035861     0.85800
O1547       O  0.73728212  0.56257611  0.99262972    -0.78300
O1548       O  0.75252632  0.57110864  0.05527918    -0.88600
C1549       C  0.72928109  0.52068394  0.90446832     0.85300
O1550       O  0.79303002  0.54691323  0.05828716    -0.66800
O1551       O  0.74426126  0.93428466  0.95193980    -0.86100
C1552       C  0.80453821  0.55931132  0.02565174     0.86200
C1553       C  0.74640369  0.58021421  0.02283619     1.07700
H1554       H  0.76760719  0.99384259  0.97705661     0.39500
O1555       O  0.74555098  0.98743364  0.97654994    -1.08700
O1556       O  0.68578805  0.94330174  0.00931124    -0.65400
Ni1557     Ni  0.72984131  0.96893035  0.02542623     1.26300
O1558       O  0.78708647  0.55198682  0.99487808    -0.65600
O1559       O  0.73520392  0.93198647  0.01614452    -0.77900
C1560       C  0.72520538  0.97131179  0.10572227     0.85600
O1561       O  0.71425689  0.95351421  0.07610411    -0.65100
Ni1562     Ni  0.72858249  0.96194137  0.93173595     1.27400
Ni1563     Ni  0.74173411  0.52526731  0.98306719     1.26100
H1564       H  0.70651524  0.50286560  0.03570586     0.40100
O1565       O  0.59628757  0.92018086  0.42897680    -0.79900
O1566       O  0.63904825  0.91679173  0.26177816    -0.64500
O1567       O  0.62746617  0.94172992  0.36224924    -1.11200
C1568       C  0.52858671  0.91855282  0.30377064     1.07000
O1569       O  0.62615124  0.95253440  0.23778364    -0.77800
O1570       O  0.58930216  0.97648612  0.27083216    -0.65300
Ni1571     Ni  0.63239028  0.92092213  0.40758002     1.34900
C1572       C  0.59521047  0.99123113  0.30297507     0.85800
O1573       O  0.67445382  0.93310199  0.32635012    -0.78300
O1574       O  0.66925319  0.92030157  0.38937088    -0.88600
C1575       C  0.64204983  0.93739156  0.23605143     0.85300
O1576       O  0.60694674  0.87807299  0.38984032    -0.66800
O1577       O  0.54093153  0.91803444  0.27155566    -0.86100
C1578       C  0.60539274  0.86503199  0.35734981     0.86200
C1579       C  0.68393282  0.92579467  0.35773082     1.07700
H1580       H  0.57801286  0.89706697  0.30322566     0.39500
O1581       O  0.59181284  0.91987435  0.30325016    -1.08700
O1582       O  0.60117374  0.97982086  0.33368083    -0.65400
Ni1583     Ni  0.58578905  0.93588520  0.35067664     1.26300
O1584       O  0.61644737  0.88158441  0.32671122    -0.65600
O1585       O  0.54359901  0.92692625  0.33636660    -0.77900
C1586       C  0.59320868  0.94520858  0.43027595     0.85600
O1587       O  0.58324478  0.95327030  0.40013670    -0.65100
Ni1588     Ni  0.58350681  0.93499476  0.25594227     1.27400
Ni1589     Ni  0.63331277  0.92690088  0.31354969     1.26100
H1590       H  0.64182555  0.96431938  0.36445052     0.40100
O1591       O  0.88775797  0.83620850  0.55498483    -0.79900
O1592       O  0.85986565  0.78722524  0.72927411    -0.64500
O1593       O  0.87558073  0.83126420  0.63329143    -1.11200
C1594       C  0.97980788  0.87319178  0.67793310     1.07000
O1595       O  0.88912071  0.83202844  0.76110917    -0.77800
O1596       O  0.92446955  0.88649829  0.72361832    -0.65300
Ni1597     Ni  0.85796279  0.80475230  0.58864673     1.34900
C1598       C  0.92409794  0.89962409  0.69173919     0.85800
O1599       O  0.82383134  0.79116921  0.67348108    -0.78300
O1600       O  0.82371895  0.77142436  0.61564418    -0.88600
C1601       C  0.86619081  0.80400082  0.75952984     0.85300
O1602       O  0.88412940  0.78523247  0.59879946    -0.66800
O1603       O  0.96861732  0.86786514  0.71189368    -0.86100
C1604       C  0.88293681  0.76955633  0.62948469     0.86200
C1605       C  0.81014053  0.77134649  0.64670392     1.07700
H1606       H  0.91752092  0.81047155  0.68579026     0.39500
O1607       O  0.91077453  0.82661621  0.68706345    -1.08700
O1608       O  0.92240220  0.88705489  0.65913091    -0.65400
Ni1609     Ni  0.91981279  0.84879672  0.63904936     1.26300
O1610       O  0.86854589  0.77116833  0.65924542    -0.65600
O1611       O  0.96330705  0.86517534  0.64688195    -0.77900
C1612       C  0.91154211  0.86337026  0.55983074     0.85600
O1613       O  0.92753893  0.87167870  0.59111845    -0.65100
Ni1614     Ni  0.92819823  0.84902214  0.73432033     1.27400
Ni1615     Ni  0.86726669  0.80843291  0.68083003     1.26100
H1616       H  0.86901129  0.84759287  0.63421037     0.40100
O1617       O  0.80026169  0.77284137  0.10601525    -0.79900
O1618       O  0.80486340  0.75727693  0.92408321    -0.64500
O1619       O  0.80030335  0.78313714  0.02659089    -1.11200
C1620       C  0.69357673  0.72378527  0.00553654     1.07000
O1621       O  0.76748638  0.76637715  0.89949795    -0.77800
O1622       O  0.74882522  0.79354919  0.95277489    -0.65300
Ni1623     Ni  0.82597032  0.77568172  0.06386752     1.34900
C1624       C  0.74974104  0.80485106  0.98608891     0.85800
O1625       O  0.84595157  0.79817023  0.97296657    -0.78300
O1626       O  0.85658688  0.77989360  0.02735627    -0.88600
C1627       C  0.79219792  0.76394112  0.89575628     0.85300
O1628       O  0.80186013  0.73100483  0.05493242    -0.66800
O1629       O  0.70047556  0.73469981  0.97130024    -0.86100
C1630       C  0.79817843  0.71723552  0.02247020     0.86200
C1631       C  0.86461928  0.79414422  0.99507408     1.07700
H1632       H  0.75427365  0.72111209  0.97667067     0.39500
O1633       O  0.75957879  0.74349715  0.97776364    -1.08700
O1634       O  0.74859703  0.78983315  0.01713356    -0.65400
Ni1635     Ni  0.75656118  0.75477001  0.03010544     1.26300
O1636       O  0.80785003  0.73340602  0.99138310    -0.65600
O1637       O  0.71337514  0.72641689  0.03160495    -0.77900
C1638       C  0.77390032  0.77160070  0.11026620     0.85600
O1639       O  0.75442909  0.76617127  0.08258278    -0.65100
Ni1640     Ni  0.73552573  0.75052311  0.93813921     1.27400
Ni1641     Ni  0.80286155  0.77022917  0.97512596     1.26100
H1642       H  0.80499276  0.80515099  0.02707974     0.40100
O1643       O  0.85189895  0.90552964  0.43659933    -0.79900
O1644       O  0.78568624  0.83777227  0.27995431    -0.64500
O1645       O  0.83441229  0.86570124  0.37267022    -1.11200
C1646       C  0.88805631  0.96003452  0.29822216     1.07000
O1647       O  0.82906670  0.85485092  0.24664824    -0.77800
O1648       O  0.88865257  0.89923501  0.26891620    -0.65300
Ni1649     Ni  0.81496087  0.86753262  0.41888126     1.34900
C1650       C  0.90021983  0.89308706  0.29909518     0.85800
O1651       O  0.78366990  0.81119971  0.34914284    -0.78300
O1652       O  0.77685619  0.82877989  0.40604496    -0.88600
C1653       C  0.79984922  0.83675288  0.25007981     0.85300
O1654       O  0.79836862  0.89357803  0.39623341    -0.66800
O1655       O  0.87096549  0.94488661  0.26906908    -0.86100
C1656       C  0.77973709  0.88596615  0.36713089     0.86200
C1657       C  0.76809845  0.80744029  0.37949205     1.07700
H1658       H  0.82350985  0.90632099  0.31095652     0.39500
O1659       O  0.83445610  0.89385403  0.30956360    -1.08700
O1660       O  0.88674076  0.88727678  0.33133461    -0.65400
Ni1661     Ni  0.86283280  0.90604751  0.35197755     1.26300
O1662       O  0.77849398  0.86577982  0.34209853    -0.65600
O1663       O  0.88984857  0.94668714  0.32985959    -0.77900
C1664       C  0.88000847  0.91189000  0.43045488     0.85600
O1665       O  0.88990790  0.91538627  0.39619454    -0.65100
Ni1666     Ni  0.84997840  0.89988804  0.25890272     1.27400
Ni1667     Ni  0.80864513  0.85185222  0.32763281     1.26100
H1668       H  0.84440235  0.85243704  0.37693754     0.40100
O1669       O  0.92346702  0.58503677  0.56592103    -0.79900
O1670       O  0.93149451  0.63750970  0.73265059    -0.64500
O1671       O  0.94911051  0.62245213  0.62988365    -1.11200
C1672       C  0.93490871  0.52520970  0.68899435     1.07000
O1673       O  0.96856005  0.62549468  0.75208163    -0.77800
O1674       O  0.99053243  0.58672638  0.71888899    -0.65300
Ni1675     Ni  0.92454316  0.62299122  0.58629996     1.34900
C1676       C  0.50383258  0.59292025  0.68632985     0.85800
O1677       O  0.94050062  0.67070111  0.66562027    -0.78300
O1678       O  0.92418563  0.66130068  0.60345803    -0.88600
C1679       C  0.95288012  0.64048437  0.75705738     0.85300
O1680       O  0.88404256  0.59759538  0.60763778    -0.66800
O1681       O  0.93345113  0.53743576  0.72124880    -0.86100
C1682       C  0.87335194  0.59876084  0.64051302     0.86200
C1683       C  0.93081007  0.67808436  0.63428513     1.07700
H1684       H  0.91105837  0.57342536  0.69096696     0.39500
O1685       O  0.93310242  0.58825758  0.69004632    -1.08700
O1686       O  0.99143948  0.59941888  0.65671901    -0.65400
Ni1687     Ni  0.94708053  0.58160533  0.64206064     1.26300
O1688       O  0.89162211  0.61094618  0.67010163    -0.65600
O1689       O  0.94194401  0.54034509  0.65674073    -0.77900
C1690       C  0.94828593  0.58291926  0.56180086     0.85600
O1691       O  0.96098327  0.57781770  0.59163587    -0.65100
Ni1692     Ni  0.95076943  0.58141718  0.73591542     1.27400
Ni1693     Ni  0.93724441  0.62976155  0.67952875     1.26100
H1694       H  0.97058423  0.63808224  0.62572931     0.40100
O1695       O  0.51452706  0.73726627  0.90493348    -0.79900
O1696       O  0.54204016  0.74259743  0.08122452    -0.64500
O1697       O  0.51590490  0.71331189  0.97813058    -1.11200
C1698       C  0.94564040  0.75106935  0.00528518     1.07000
O1699       O  0.99409137  0.71141413  0.10071198    -0.77800
O1700       O  0.93904740  0.68902854  0.05475312    -0.65300
Ni1701     Ni  0.54462362  0.73187295  0.93705554     1.34900
C1702       C  0.93274630  0.67109353  0.02505314     0.85800
O1703       O  0.56205616  0.71702288  0.02838788    -0.78300
O1704       O  0.57588203  0.72588585  0.96587178    -0.88600
C1705       C  0.52373798  0.72474630  0.10687501     0.85300
O1706       O  0.56334770  0.77664212  0.95138567    -0.66800
O1707       O  0.95249481  0.75087016  0.04135299    -0.86100
C1708       C  0.57175640  0.79037246  0.98422750     0.86200
C1709       C  0.57905377  0.71814466  0.00062311     1.07700
H1710       H  0.50824303  0.76389314  0.02394998     0.39500
O1711       O  0.99886339  0.74092966  0.02691207    -1.08700
O1712       O  0.95114435  0.67973429  0.99616110    -0.65400
Ni1713     Ni  0.98182907  0.72251247  0.97777050     1.26300
O1714       O  0.56203069  0.77420957  0.01549589    -0.65600
O1715       O  0.95089071  0.73568892  0.97898463    -0.77900
C1716       C  0.98690173  0.71491789  0.89890247     0.85600
O1717       O  0.96805842  0.70490975  0.92677853    -0.65100
Ni1718     Ni  0.97266449  0.73051905  0.06984570     1.27400
Ni1719     Ni  0.53104150  0.72980702  0.02874114     1.26100
H1720       H  0.50816694  0.69041576  0.97810820     0.40100
O1721       O  0.58070199  0.66549856  0.23764075    -0.79900
O1722       O  0.52431926  0.61224372  0.39690928    -0.64500
O1723       O  0.54487958  0.65402199  0.29916484    -1.11200
C1724       C  0.63824655  0.71933292  0.37064270     1.07000
O1725       O  0.53530432  0.65927511  0.42165797    -0.77800
O1726       O  0.57594342  0.72017174  0.39403702    -0.65300
Ni1727     Ni  0.54268610  0.63083774  0.25343758     1.34900
C1728       C  0.57163992  0.72987074  0.36117817     0.85800
O1729       O  0.99441330  0.60186110  0.32843029    -0.78300
O1730       O  0.00355895  0.59510764  0.26682317    -0.88600
C1731       C  0.52094215  0.62877268  0.42334528     0.85300
O1732       O  0.56563202  0.61044667  0.27375602    -0.66800
O1733       O  0.62292176  0.70597007  0.40100554    -0.86100
C1734       C  0.56409777  0.59667437  0.30589990     0.86200
C1735       C  0.98594450  0.58745500  0.29608980     1.07700
H1736       H  0.58855389  0.65181570  0.36409037     0.39500
O1737       O  0.57538398  0.66198114  0.36225272    -1.08700
O1738       O  0.56798666  0.71380446  0.33063069    -0.65400
Ni1739     Ni  0.58545370  0.68661630  0.31613117     1.26300
O1740       O  0.55058549  0.60101104  0.33495657    -0.65600
O1741       O  0.62596469  0.71678956  0.33659030    -0.77900
C1742       C  0.58284320  0.69312493  0.23688225     0.85600
O1743       O  0.59240111  0.70974021  0.26758985    -0.65100
Ni1744     Ni  0.57930028  0.68282508  0.41014691     1.27400
Ni1745     Ni  0.53472377  0.63125590  0.34655515     1.26100
H1746       H  0.53112734  0.66336500  0.29527194     0.40100
C1747       C  0.53772782  0.67976132  0.19046523     0.24600
C1748       C  0.56754188  0.70219448  0.20470256    -0.23500
C1749       C  0.58172429  0.73294842  0.18838493     0.19500
C1750       C  0.56722271  0.74049880  0.15717417     0.24600
C1751       C  0.53765613  0.71776692  0.14239869    -0.23400
C1752       C  0.52292244  0.68749798  0.16000026     0.19500
F1753       F  0.99465982  0.66474673  0.14670765    -0.13400
F1754       F  0.52242247  0.65022756  0.20638101    -0.15700
F1755       F  0.58219568  0.77014654  0.14133126    -0.15700
F1756       F  0.61007880  0.75537935  0.20181522    -0.13400
C1757       C  0.93877227  0.66688521  0.81111277     0.24600
C1758       C  0.96133544  0.66250951  0.79088049    -0.23500
C1759       C  0.99246345  0.67790418  0.80480462     0.19500
C1760       C  0.50071082  0.69630645  0.83855232     0.24600
C1761       C  0.97797282  0.69922180  0.86017788    -0.23400
C1762       C  0.94692218  0.68467698  0.84580693     0.19500
F1763       F  0.92445439  0.68749669  0.86542207    -0.13400
F1764       F  0.90859445  0.65268641  0.79838142    -0.15700
F1765       F  0.53091711  0.70982676  0.85120452    -0.15700
F1766       F  0.51514373  0.67484541  0.78594531    -0.13400
C1767       C  0.48874714  0.58331703  0.51652353     0.24600
C1768       C  0.96387833  0.58996987  0.52355836    -0.23500
C1769       C  0.95641387  0.60707570  0.49516706     0.19500
C1770       C  0.97437428  0.61868874  0.46197062     0.24600
C1771       C  0.49974957  0.61296378  0.45581090    -0.23400
C1772       C  0.50626244  0.59442648  0.48276064     0.19500
F1773       F  0.53079172  0.58869974  0.47750416    -0.13400
F1774       F  0.49681244  0.56693081  0.54282198    -0.15700
F1775       F  0.96735441  0.63620133  0.43609690    -0.15700
F1776       F  0.93286523  0.61435558  0.50044216    -0.13400
C1777       C  0.72366310  0.75990377  0.34844055     0.24600
C1778       C  0.73670676  0.77956926  0.38132094    -0.23500
C1779       C  0.71746063  0.77579030  0.41293210     0.19500
C1780       C  0.68542021  0.75552133  0.40992757     0.24600
C1781       C  0.67217403  0.73855164  0.37541518    -0.23400
C1782       C  0.69169526  0.73966712  0.34559324     0.19500
F1783       F  0.67976453  0.72140193  0.31333408    -0.13400
F1784       F  0.74137019  0.76141972  0.31786953    -0.15700
F1785       F  0.66724136  0.75395996  0.44000493    -0.15700
F1786       F  0.72921640  0.79294179  0.44602632    -0.13400
C1787       C  0.91434663  0.51475525  0.32782020     0.24600
C1788       C  0.90767083  0.99471436  0.29543033    -0.23500
C1789       C  0.92032262  0.00920188  0.25996770     0.19500
C1790       C  0.94469335  0.54133345  0.25870938     0.24600
C1791       C  0.95516808  0.55884561  0.29351498    -0.23400
C1792       C  0.93805139  0.54610631  0.32738583     0.19500
F1793       F  0.94560832  0.56291023  0.36104851    -0.13400
F1794       F  0.90300347  0.00042992  0.36366352    -0.15700
F1795       F  0.45893875  0.55367568  0.22468964    -0.15700
F1796       F  0.91165319  0.99217631  0.22646659    -0.13400
C1797       C  0.77721739  0.76832231  0.18170999     0.24600
C1798       C  0.76805151  0.77996690  0.14895328    -0.23500
C1799       C  0.76281535  0.80652681  0.15284786     0.19500
C1800       C  0.77028974  0.82346508  0.18777456     0.24600
C1801       C  0.78295837  0.81393626  0.21895560    -0.23400
C1802       C  0.78496332  0.78544937  0.21645946     0.19500
F1803       F  0.79717668  0.77592544  0.24642532    -0.13400
F1804       F  0.78171482  0.74221684  0.17881778    -0.15700
F1805       F  0.76837830  0.85108621  0.18982493    -0.15700
F1806       F  0.75473485  0.81867809  0.12148097    -0.13400
C1807       C  0.91957262  0.81349167  0.00681737     0.24600
C1808       C  0.89427456  0.79954256  0.98073422    -0.23500
C1809       C  0.89245164  0.77644494  0.95434166     0.19500
C1810       C  0.91062434  0.76139706  0.96096635     0.24600
C1811       C  0.93138933  0.77066370  0.99295416    -0.23400
C1812       C  0.93796775  0.79868267  0.01345141     0.19500
F1813       F  0.96025324  0.81004554  0.04195921    -0.13400
F1814       F  0.92221917  0.83700118  0.03117998    -0.15700
F1815       F  0.90492430  0.73531169  0.93937618    -0.15700
F1816       F  0.86838196  0.76331403  0.92826741    -0.13400
C1817       C  0.63887558  0.69156759  0.98699424     0.24600
C1818       C  0.66100646  0.71043200  0.01514078    -0.23500
C1819       C  0.65287324  0.72548239  0.04414973     0.19500
C1820       C  0.62440234  0.72574108  0.04128327     0.24600
C1821       C  0.60443738  0.71108115  0.00935880    -0.23400
C1822       C  0.61076234  0.69231781  0.98368729     0.19500
F1823       F  0.59087984  0.67689478  0.95370601    -0.13400
F1824       F  0.64638650  0.67619534  0.95952478    -0.15700
F1825       F  0.61820293  0.74364440  0.06666373    -0.15700
F1826       F  0.67419850  0.74401553  0.07141514    -0.13400
C1827       C  0.82377015  0.75495468  0.84588749     0.24600
C1828       C  0.80806504  0.77161463  0.85835578    -0.23500
C1829       C  0.81033960  0.79792421  0.83674589     0.19500
C1830       C  0.82913840  0.80823059  0.80425778     0.24600
C1831       C  0.84534338  0.79200088  0.79247205    -0.23400
C1832       C  0.84210883  0.76496652  0.81291810     0.19500
F1833       F  0.85784664  0.74921046  0.80194132    -0.13400
F1834       F  0.82155709  0.72917755  0.86584380    -0.15700
F1835       F  0.83181795  0.83428675  0.78446747    -0.15700
F1836       F  0.79580359  0.81476804  0.84829240    -0.13400
C1837       C  0.91024623  0.94027408  0.71694861     0.24600
C1838       C  0.92720905  0.93175078  0.69161411    -0.23500
C1839       C  0.94738222  0.95419374  0.66510679     0.19500
C1840       C  0.95037501  0.98477452  0.66359636     0.24600
C1841       C  0.93291069  0.99329426  0.68825184    -0.23400
C1842       C  0.91283677  0.97086325  0.71504048     0.19500
F1843       F  0.89141022  0.47682638  0.73867919    -0.13400
F1844       F  0.89069436  0.91880475  0.74276090    -0.15700
F1845       F  0.97134697  0.00641629  0.63909075    -0.15700
F1846       F  0.96506767  0.94680838  0.64150595    -0.13400
C1847       C  0.91713043  0.71664309  0.66793414     0.24600
C1848       C  0.92405753  0.70573219  0.63361505    -0.23500
C1849       C  0.91944458  0.71796154  0.59800812     0.19500
C1850       C  0.90671663  0.73903840  0.59667322     0.24600
C1851       C  0.89812987  0.74852323  0.63086315    -0.23400
C1852       C  0.90430871  0.73767415  0.66659021     0.19500
F1853       F  0.89746974  0.74690889  0.70052984    -0.13400
F1854       F  0.92095426  0.70553188  0.70290789    -0.15700
F1855       F  0.90160232  0.74899668  0.56156257    -0.15700
F1856       F  0.92623240  0.70869193  0.56403646    -0.13400
C1857       C  0.90548054  0.90852955  0.53317565     0.24600
C1858       C  0.91743172  0.88688955  0.52872815    -0.23500
C1859       C  0.92452212  0.88103031  0.49154640     0.19500
C1860       C  0.91657711  0.89377688  0.45903011     0.24600
C1861       C  0.89979075  0.91101783  0.46328088    -0.23400
C1862       C  0.89609824  0.91999685  0.50066419     0.19500
F1863       F  0.88090929  0.93745070  0.50578420    -0.13400
F1864       F  0.89879081  0.91489742  0.56896554    -0.15700
F1865       F  0.92146648  0.88549151  0.42335570    -0.15700
F1866       F  0.93607991  0.86026138  0.48653110    -0.13400
C1867       C  0.74081021  0.89651362  0.32805020     0.24600
C1868       C  0.75791391  0.89990152  0.36288117    -0.23500
C1869       C  0.75260854  0.91528820  0.39437791     0.19500
C1870       C  0.72999437  0.92563165  0.39174706     0.24600
C1871       C  0.71200505  0.92095660  0.35761588    -0.23400
C1872       C  0.71815549  0.90692019  0.32548922     0.19500
F1873       F  0.70075122  0.90117560  0.29236410    -0.13400
F1874       F  0.74524212  0.88226882  0.29661466    -0.15700
F1875       F  0.72501201  0.93939134  0.42325060    -0.15700
F1876       F  0.76816385  0.91900785  0.42863732    -0.13400
C1877       C  0.98504370  0.92533861  0.27448755     0.24600
C1878       C  0.49528482  0.91028798  0.30212604    -0.23500
C1879       C  0.97353178  0.88735726  0.32693190     0.19500
C1880       C  0.94198356  0.88005610  0.32449803     0.24600
C1881       C  0.93188508  0.89593259  0.29754273    -0.23400
C1882       C  0.95379019  0.91839638  0.27228042     0.19500
F1883       F  0.94546518  0.93525119  0.24692104    -0.13400
F1884       F  0.00572523  0.94805244  0.25070037    -0.15700
F1885       F  0.92134980  0.85755087  0.34848633    -0.15700
F1886       F  0.48273545  0.87175480  0.35304773    -0.13400
C1887       C  0.58701625  0.53351120  0.34307438     0.24600
C1888       C  0.59583820  0.52422415  0.30867503    -0.23500
C1889       C  0.59738556  0.54156955  0.27475622     0.19500
C1890       C  0.58846881  0.56575557  0.27445181     0.24600
C1891       C  0.57758432  0.57371645  0.30819773    -0.23400
C1892       C  0.57823275  0.55801595  0.34287902     0.19500
F1893       F  0.56945110  0.56558869  0.37657278    -0.13400
F1894       F  0.58482659  0.51750048  0.37659188    -0.15700
F1895       F  0.58937488  0.58038244  0.24018763    -0.15700
F1896       F  0.60295783  0.03161150  0.23712269    -0.13400
C1897       C  0.58332815  0.78010497  0.32322465     0.24600
C1898       C  0.57357969  0.76233835  0.35789159    -0.23500
C1899       C  0.57034956  0.77782029  0.39064899     0.19500
C1900       C  0.57899972  0.81057722  0.38980611     0.24600
C1901       C  0.59139547  0.82911679  0.35609695    -0.23400
C1902       C  0.59229153  0.81299836  0.32240536     0.19500
F1903       F  0.60319707  0.82921070  0.28885643    -0.13400
F1904       F  0.58612735  0.76624074  0.29040168    -0.15700
F1905       F  0.57611784  0.82421230  0.42277663    -0.15700
F1906       F  0.55949214  0.76141403  0.42408913    -0.13400
C1907       C  0.70526841  0.98620221  0.16425983     0.24600
C1908       C  0.70755626  0.96239673  0.14255285    -0.23500
C1909       C  0.68972814  0.93017506  0.15384402     0.19500
C1910       C  0.66941455  0.92199257  0.18530936     0.24600
C1911       C  0.66571054  0.94574657  0.20526560    -0.23400
C1912       C  0.68443095  0.97796423  0.19489804     0.19500
F1913       F  0.68249510  0.00166464  0.21446072    -0.13400
F1914       F  0.72548064  0.51723862  0.15605725    -0.15700
F1915       F  0.65227059  0.89071460  0.19505600    -0.15700
F1916       F  0.69166593  0.90655560  0.13411132    -0.13400
C1917       C  0.63718239  0.87386268  0.01810146     0.24600
C1918       C  0.64370233  0.89260718  0.98404959    -0.23500
C1919       C  0.62404924  0.87804294  0.95146676     0.19500
C1920       C  0.59999146  0.84585849  0.95225751     0.24600
C1921       C  0.59467491  0.82636942  0.98553356    -0.23400
C1922       C  0.61324764  0.84145909  0.01882778     0.19500
F1923       F  0.60949147  0.82438814  0.05182307    -0.13400
F1924       F  0.65545822  0.88613771  0.05023939    -0.15700
F1925       F  0.58212084  0.83366652  0.91978337    -0.15700
F1926       F  0.62849032  0.89487401  0.91812554    -0.13400
C1927       C  0.85501928  0.59820103  0.98965455     0.24600
C1928       C  0.83911192  0.58502263  0.02457047    -0.23500
C1929       C  0.85583338  0.59943202  0.05928805     0.19500
C1930       C  0.88613810  0.62604762  0.05918690     0.24600
C1931       C  0.90186675  0.63962655  0.02443242    -0.23400
C1932       C  0.88575434  0.62473470  0.98961063     0.19500
F1933       F  0.89902968  0.63689121  0.95511387    -0.13400
F1934       F  0.84059384  0.58598007  0.95516026    -0.15700
F1935       F  0.89980511  0.63904255  0.09379328    -0.15700
F1936       F  0.84234867  0.58881792  0.09407152    -0.13400
C1937       C  0.75257195  0.63042117  0.05328775     0.24600
C1938       C  0.75354827  0.61407592  0.02005628    -0.23500
C1939       C  0.76711924  0.63168303  0.98646404     0.19500
C1940       C  0.78137727  0.66514820  0.98692406     0.24600
C1941       C  0.78214343  0.68168441  0.02099554    -0.23400
C1942       C  0.76641973  0.66375037  0.05368118     0.19500
F1943       F  0.76462228  0.67832946  0.08645634    -0.13400
F1944       F  0.73903092  0.61414621  0.08600736    -0.15700
F1945       F  0.79540525  0.68121854  0.95434009    -0.15700
F1946       F  0.76871431  0.61669537  0.95395129    -0.13400
C1947       C  0.73320354  0.87102072  0.01788297     0.24600
C1948       C  0.74807138  0.89414453  0.98901053    -0.23500
C1949       C  0.76580452  0.88871551  0.96124538     0.19500
C1950       C  0.76705049  0.85993920  0.96091850     0.24600
C1951       C  0.75107524  0.83635227  0.98875087    -0.23400
C1952       C  0.73486836  0.84245220  0.01785509     0.19500
F1953       F  0.71884294  0.81988525  0.04477761    -0.13400
F1954       F  0.71534840  0.87501917  0.04472215    -0.15700
F1955       F  0.78362871  0.85500962  0.93309712    -0.15700
F1956       F  0.78156386  0.91102981  0.93396003    -0.13400
C1957       C  0.73685446  0.57258842  0.81507860     0.24600
C1958       C  0.70530985  0.56105193  0.80342337    -0.23500
C1959       C  0.68222267  0.53664442  0.82583503     0.19500
C1960       C  0.69025578  0.52409655  0.85846347     0.24600
C1961       C  0.72161322  0.53560205  0.87029297    -0.23400
C1962       C  0.74487610  0.56029348  0.84844503     0.19500
F1963       F  0.77544541  0.57162145  0.85845781    -0.13400
F1964       F  0.75995693  0.59562695  0.79414531    -0.15700
F1965       F  0.66703712  0.50054936  0.87876446    -0.15700
F1966       F  0.65157677  0.52367166  0.81530252    -0.13400
C1967       C  0.82427667  0.59005165  0.67699736     0.24600
C1968       C  0.83833934  0.58726645  0.64285013    -0.23500
C1969       C  0.81889689  0.57645817  0.60915439     0.19500
C1970       C  0.78777848  0.57116441  0.60889167     0.24600
C1971       C  0.77432507  0.57575006  0.64237809    -0.23400
C1972       C  0.79283730  0.58424300  0.67678887     0.19500
F1973       F  0.78120405  0.58898465  0.70999217    -0.13400
F1974       F  0.84122553  0.59966489  0.71052196    -0.15700
F1975       F  0.77095772  0.56211870  0.57520501    -0.15700
F1976       F  0.83018646  0.57203333  0.57546894    -0.13400
C1977       C  0.56366443  0.56755378  0.64995841     0.24600
C1978       C  0.58277312  0.57151146  0.68317822    -0.23500
C1979       C  0.57757796  0.58619796  0.71574557     0.19500
C1980       C  0.55333253  0.59472611  0.71591714     0.24600
C1981       C  0.53356702  0.58984156  0.68323717    -0.23400
C1982       C  0.53966878  0.57665788  0.64998104     0.19500
F1983       F  0.02090461  0.57034032  0.61811825    -0.13400
F1984       F  0.56704517  0.55336232  0.61778811    -0.15700
F1985       F  0.54875849  0.60717398  0.74886786    -0.15700
F1986       F  0.59559236  0.59182018  0.74828121    -0.13400
C1987       C  0.52579434  0.91094766  0.64086415     0.24600
C1988       C  0.01366683  0.89296210  0.67474328    -0.23500
C1989       C  0.53290205  0.89985202  0.70813328     0.19500
C1990       C  0.56190984  0.92692069  0.70926525     0.24600
C1991       C  0.57226145  0.94697546  0.67684760    -0.23400
C1992       C  0.55474791  0.93805152  0.64210170     0.19500
F1993       F  0.56312502  0.46008631  0.61004217    -0.13400
F1994       F  0.00839980  0.90467738  0.60765919    -0.15700
F1995       F  0.57894975  0.93463022  0.74284451    -0.15700
F1996       F  0.02267299  0.88200113  0.74075563    -0.13400
C1997       C  0.74015173  0.69700980  0.62247460     0.24600
C1998       C  0.74205954  0.67801925  0.65307293    -0.23500
C1999       C  0.75860002  0.69302892  0.68721305     0.19500
C2000       C  0.77754670  0.72597030  0.68778466     0.24600
C2001       C  0.78024465  0.74380009  0.65413600    -0.23400
C2002       C  0.75935325  0.72987114  0.62306042     0.19500
F2003       F  0.76016607  0.74757028  0.59153807    -0.13400
F2004       F  0.72137968  0.68377520  0.59089114    -0.15700
F2005       F  0.79658627  0.73945517  0.71904677    -0.15700
F2006       F  0.75890815  0.67583029  0.71870275    -0.13400
C2007       C  0.60280113  0.49973602  0.51768578     0.24600
C2008       C  0.63426288  0.51009622  0.52923075    -0.23500
C2009       C  0.65096915  0.99808710  0.50711103     0.19500
C2010       C  0.63750519  0.97729704  0.47562756     0.24600
C2011       C  0.60631878  0.96717430  0.46395643    -0.23400
C2012       C  0.58885052  0.97859070  0.48423246     0.19500
F2013       F  0.55903010  0.46919564  0.47578804    -0.13400
F2014       F  0.58519290  0.51029848  0.53655185    -0.15700
F2015       F  0.65533146  0.96749253  0.45588541    -0.15700
F2016       F  0.68110729  0.00691915  0.51719535    -0.13400
loop_ 
_geom_bond_atom_site_label_1 
_geom_bond_atom_site_label_2 
_geom_bond_distance 
_geom_bond_site_symmetry_2 
_ccdc_geom_bond_type 
O1           Ni7   1.908       .  S
O1           C22   1.267       .  A
O2          Ni25   1.915       .  S
O2           C11   1.271       .  A
O3           Ni7   1.916       .  S
O3          Ni25   1.909       .  S
O3          Ni19   1.913       .  S
O3           H26   0.966       .  S
C4           O21   1.282       .  A
C4           O13   1.282       .  A
C4          C486   1.469       .  S
O5          Ni24   1.951       .  S
O5           C11   1.282       .  A
O6          Ni24   1.937       .  S
O6            C8   1.274       .  A
Ni7          O12   1.929       .  S
Ni7         O514   1.918   1_545  S
C8           O18   1.279       .  A
C8          C459   1.521       .  S
O9         Ni529   1.882       .  S
O9           C15   1.268       .  A
O10        Ni511   1.918       .  S
O10          C15   1.277       .  A
C11         C496   1.500       .  S
O12          C14   1.273       .  A
O13         Ni24   1.910       .  S
C14          O20   1.282       .  A
C14         C466   1.528       .  S
C15         C479   1.456       .  S
H16          O17   0.966       .  S
O17         Ni25   1.880       .  S
O17         Ni19   1.906       .  S
O17         Ni24   1.888       .  S
O18         Ni19   1.954       .  S
Ni19         O23   1.945       .  S
Ni19         O21   1.907       .  S
O20         Ni25   1.975       .  S
C22          O23   1.272       .  A
C22         C446   1.506       .  S
Ni25        O513   1.881   1_545  S
O27         Ni33   1.927   1_565  S
O27         C552   1.274       .  A
O28         Ni51   1.929       .  S
O28          C37   1.278       .  A
O29         Ni33   1.913       .  S
O29         Ni51   1.912   1_554  S
O29        Ni549   1.932   1_545  S
O29          H52   0.967       .  S
C30          O47   1.281   1_556  A
C30          O39   1.282       .  A
C30         C436   1.475       .  S
O31         Ni50   1.945       .  S
O31         C541   1.281       .  A
O32         Ni50   1.936       .  S
O32          C34   1.273       .  A
Ni33         O36   1.918       .  S
Ni33         O38   1.938       .  S
C34          O44   1.285   1_556  A
C34         C406   1.533       .  S
O35         Ni51   1.914       .  S
O35          C41   1.277   1_556  A
O36          C41   1.276       .  A
C37         O535   1.281   1_545  A
C37         C449   1.499       .  S
O38          C40   1.279       .  A
O39         Ni50   1.918       .  S
C40          O46   1.289   1_554  A
C40         C416   1.541       .  S
C41         C426   1.474       .  S
H42          O43   0.966       .  S
O43         Ni45   1.902   1_556  S
O43         Ni50   1.892       .  S
O43        Ni555   1.910       .  S
O44         Ni45   1.970       .  S
Ni45         O49   1.925       .  S
Ni45         O47   1.916       .  S
Ni45        O533   1.930       .  S
O46         Ni51   1.989       .  S
C48          O49   1.270       .  A
C48         O531   1.274       .  A
C48         C396   1.499       .  S
Ni51        O547   1.909   1_545  S
O53         Ni59   1.906       .  S
O53          C74   1.265       .  A
O54         Ni77   1.922       .  S
O54          C63   1.274       .  A
O55         Ni59   1.915       .  S
O55         Ni77   1.910       .  S
O55         Ni71   1.940       .  S
O55          H78   0.966       .  S
C56          O73   1.286       .  A
C56          O65   1.283       .  A
C56         C366   1.475   1_455  S
O57         Ni76   1.952       .  S
O57          C63   1.281       .  A
O58         Ni76   1.919       .  S
O58          C60   1.271       .  A
Ni59         O62   1.923       .  S
Ni59         O64   1.914       .  S
C60          O70   1.274       .  A
C60         C880   1.506       .  S
O61         Ni77   1.919       .  S
O61          C67   1.277       .  A
O62          C67   1.276       .  A
C63         C399   1.496       .  S
O64          C66   1.272       .  A
O65         Ni76   1.923       .  S
C66          O72   1.279       .  A
C66         C389   1.505       .  S
C67         C359   1.485       .  S
H68          O69   0.966       .  S
O69         Ni77   1.907       .  S
O69         Ni71   1.900       .  S
O69         Ni76   1.890       .  S
O70         Ni71   1.939       .  S
Ni71         O75   1.933       .  S
Ni71         O73   1.937       .  S
O72         Ni77   1.953       .  S
C74          O75   1.268       .  A
C74         C499   1.486       .  S
O79         Ni85   1.923       .  S
O79         C100   1.270       .  A
O80        Ni103   1.899       .  S
O80          C89   1.263       .  A
O81         Ni85   1.910       .  S
O81        Ni103   1.902       .  S
O81         Ni97   1.906       .  S
O81         H104   0.967       .  S
C82          O99   1.273       .  A
C82          O91   1.278       .  A
C82         C476   1.469       .  S
O83        Ni102   1.931       .  S
O83          C89   1.270       .  A
O84        Ni102   1.898       .  S
O84          C86   1.264       .  A
Ni85         O88   1.923       .  S
Ni85         O90   1.912       .  S
C86          O96   1.262       .  A
C86         C326   1.451       .  S
O87        Ni103   1.882       .  S
O87          C93   1.259       .  A
O88          C93   1.273       .  A
C89         C319   1.469       .  S
O90          C92   1.274       .  A
O91        Ni102   1.914       .  S
C92          O98   1.279       .  A
C92         C339   1.493       .  S
C93         C489   1.452       .  S
H94          O95   0.966       .  S
O95        Ni103   1.882       .  S
O95         Ni97   1.901       .  S
O95        Ni102   1.908       .  S
O96         Ni97   1.890       .  S
Ni97        O101   1.908       .  S
Ni97         O99   1.891       .  S
O98        Ni103   1.951       .  S
C100        O101   1.267       .  A
C100        C346   1.470       .  S
O105       Ni111   1.903       .  S
O105        C126   1.266       .  A
O106       Ni129   1.890       .  S
O106        C115   1.258       .  A
O107       Ni111   1.915       .  S
O107       Ni129   1.912   1_554  S
O107       Ni123   1.914       .  S
O107        H130   0.957       .  S
C108        O125   1.268       .  A
C108        O117   1.274   1_554  A
C108        C306   1.451       .  S
O109       Ni128   1.935       .  S
O109        C115   1.268       .  A
O110       Ni128   1.894       .  S
O110        C112   1.266       .  A
Ni111       O114   1.909       .  S
Ni111       O116   1.903       .  S
C112        O122   1.269   1_556  A
C112        C439   1.466       .  S
O113       Ni129   1.883       .  S
O113        C119   1.255       .  A
O114        C119   1.269   1_554  A
C115        C316   1.466       .  S
O116        C118   1.271       .  A
O117       Ni128   1.910       .  S
C118        O124   1.275   1_554  A
C118        C429   1.483       .  S
C119        C296   1.440       .  S
H120        O121   0.966       .  S
O121       Ni129   1.882       .  S
O121       Ni123   1.920   1_556  S
O121       Ni128   1.910       .  S
O122       Ni123   1.917       .  S
Ni123       O127   1.916       .  S
Ni123       O125   1.892       .  S
O124       Ni129   1.943       .  S
C126        O127   1.269       .  A
C126        C286   1.471       .  S
O131       Ni137   1.931       .  S
O131        C152   1.272       .  A
O132       Ni155   1.906       .  S
O132        C141   1.267       .  A
O133       Ni137   1.898       .  S
O133       Ni155   1.893       .  S
O133       Ni149   1.901       .  S
O133        H156   0.967       .  S
C134        O151   1.282       .  A
C134        O143   1.278       .  A
C134        C276   1.462       .  S
O135       Ni154   1.929       .  S
O135        C141   1.274       .  A
O136       Ni154   1.919       .  S
O136        C138   1.269       .  A
Ni137       O140   1.937       .  S
Ni137       O142   1.910       .  S
C138        O148   1.265       .  A
C138        C369   1.483       .  S
O139       Ni155   1.883       .  S
O139        C145   1.268       .  A
O140        C145   1.279       .  A
C141        C289   1.463       .  S
O142        C144   1.270       .  A
O143       Ni154   1.910       .  S
C144        O150   1.275       .  A
C144        C356   1.491       .  S
C145        C266   1.475       .  S
H146        O147   0.966       .  S
O147       Ni155   1.891       .  S
O147       Ni149   1.886       .  S
O147       Ni154   1.890       .  S
O148       Ni149   1.914       .  S
Ni149       O153   1.909       .  S
Ni149       O151   1.913       .  S
O150       Ni155   1.945       .  S
C152        O153   1.268       .  A
C152        C349   1.479       .  S
O157       Ni163   1.914       .  S
O157        C178   1.269       .  A
O158       Ni181   1.927       .  S
O158        C167   1.278       .  A
O159       Ni163   1.909       .  S
O159       Ni181   1.905       .  S
O159       Ni175   1.939       .  S
O159        H182   0.966       .  S
C160        O177   1.284       .  A
C160        O169   1.281       .  A
C160        C833   1.464   1_545  S
O161       Ni180   1.926       .  S
O161        C167   1.276       .  A
O162       Ni180   1.927       .  S
O162       C1172   1.271       .  A
Ni163       O166   1.926       .  S
Ni163       O168   1.923       .  S
C164       O1170   1.271   1_455  A
C164       O1182   1.283   1_455  A
C164        C469   1.523       .  S
O165       Ni181   1.923       .  S
O165        C171   1.280       .  A
O166        C171   1.278       .  A
C167        C246   1.487       .  S
O168        C170   1.274       .  A
O169       Ni180   1.911       .  S
C170        O176   1.287       .  A
C170        C456   1.529       .  S
C171        C336   1.489       .  S
H172        O173   0.966       .  S
O173       Ni181   1.912       .  S
O173       Ni175   1.891       .  S
O173       Ni180   1.884       .  S
O174       Ni175   1.965       .  S
O174       C1172   1.283       .  A
Ni175       O179   1.924       .  S
Ni175       O177   1.920       .  S
O176       Ni181   1.982       .  S
C178        O179   1.268       .  A
C178        C256   1.486       .  S
O183       Ni189   1.928       .  S
O183       C1212   1.273   1_455  A
O184       Ni207   1.900       .  S
O184        C193   1.267       .  A
O185       Ni189   1.910       .  S
O185       Ni207   1.907   1_556  S
O185      Ni1209   1.904   1_455  S
O185        H208   0.966       .  S
C186        O203   1.274   1_554  A
C186        O195   1.284       .  A
C186        C299   1.452   1_554  S
O187       Ni206   1.961       .  S
O187       C1201   1.284       .  A
O188       Ni206   1.935       .  S
O188        C190   1.274       .  A
Ni189       O192   1.927       .  S
Ni189       O194   1.941       .  S
C190        O200   1.286   1_554  A
C190        C419   1.534       .  S
O191       Ni207   1.878       .  S
O191        C197   1.266       .  A
O192        C197   1.280   1_556  A
C193       O1195   1.284   1_455  A
C193        C239   1.493       .  S
O194        C196   1.275       .  A
O195       Ni206   1.920       .  S
C196        O202   1.283   1_556  A
C196        C409   1.538       .  S
C197        C309   1.453       .  S
H198       O1207   0.967   1_455  S
O199       Ni201   1.900   1_554  S
O199       Ni206   1.884       .  S
O199      Ni1215   1.874       .  S
O199       H1206   0.967       .  S
O200       Ni201   1.976       .  S
Ni201       O205   1.920       .  S
Ni201       O203   1.886       .  S
Ni201      O1193   1.904       .  S
O202       Ni207   1.980       .  S
C204        O205   1.270       .  A
C204       O1191   1.273       .  A
C204        C249   1.491       .  S
Ni207      O1207   1.874   1_455  S
O209       Ni215   1.894       .  S
O209        C230   1.265       .  A
O210       Ni233   1.923       .  S
O210        C219   1.273       .  A
O211       Ni215   1.905       .  S
O211       Ni233   1.896       .  S
O211       Ni227   1.929       .  S
O211        H234   0.967       .  S
C212        O229   1.288       .  A
C212        O221   1.278       .  A
C212        C269   1.464       .  S
O213       Ni232   1.929       .  S
O213        C219   1.275       .  A
O214       Ni232   1.929       .  S
O214        C216   1.270       .  A
Ni215       O220   1.911       .  S
Ni215      O1226   1.921       .  S
C216        O226   1.267       .  A
C216        C386   1.497       .  S
O217      Ni1241   1.887       .  S
O217        C223   1.271       .  A
O218      Ni1223   1.921       .  S
O218        C223   1.276       .  A
C219        C259   1.485       .  S
O220        C222   1.271       .  A
O221       Ni232   1.899       .  S
C222        O228   1.284       .  A
C222        C379   1.516       .  S
C223        C279   1.472       .  S
H224        O225   0.966       .  S
O225       Ni233   1.890       .  S
O225       Ni227   1.897       .  S
O225       Ni232   1.894       .  S
O226       Ni227   1.923       .  S
Ni227       O231   1.937       .  S
Ni227       O229   1.931       .  S
O228       Ni233   1.971       .  S
C230        O231   1.268       .  A
C230        C236   1.491       .  S
Ni233      O1225   1.887   1_455  S
C235        C236   1.412       .  A
C235        C240   1.401       .  A
C235        F242   1.356       .  S
C236        C237   1.405       .  A
C237        C238   1.408       .  A
C237        F244   1.358       .  S
C238        C239   1.414       .  A
C238        F243   1.358       .  S
C239        C240   1.405       .  A
C240       F1249   1.358   1_455  S
F241       C1248   1.358       .  S
C245        C246   1.408       .  A
C245        C250   1.409       .  A
C245        F252   1.357       .  S
C246        C247   1.408       .  A
C247       C1256   1.397       .  A
C247       F1262   1.359       .  S
C248       C1255   1.397   1_455  A
C248       C1257   1.408   1_455  A
C248        F253   1.358       .  S
C249        C250   1.411       .  A
C249       C1256   1.408       .  A
C250        F251   1.357       .  S
F254       C1255   1.359   1_455  S
C255        C260   1.409   1_655  A
C255       C1264   1.409       .  A
C255        F262   1.358       .  S
C256        C257   1.408       .  A
C256       C1263   1.409       .  A
C257        C258   1.397       .  A
C257        F264   1.358       .  S
C258       C1267   1.406       .  A
C258        F263   1.358       .  S
C259        C260   1.409       .  A
C259       C1266   1.406   1_455  A
C260        F261   1.358       .  S
C265        C266   1.412       .  A
C265        C270   1.392       .  A
C265        F272   1.358       .  S
C266        C267   1.409       .  A
C267        C268   1.390       .  A
C267        F274   1.359       .  S
C268        C269   1.406       .  A
C268        F273   1.359       .  S
C269        C270   1.401       .  A
C270        F271   1.358       .  S
C275        C280   1.386       .  A
C275        C780   1.403   1_545  A
C275        F786   1.359       .  S
C276        C277   1.405       .  A
C276        C779   1.402       .  A
C277        C782   1.393       .  A
C277        F284   1.358       .  S
C278        C279   1.410       .  A
C278        C781   1.394       .  A
C278       F1291   1.358       .  S
C279        C280   1.409       .  A
C280        F281   1.359       .  S
F282        C779   1.359       .  S
F283       C1286   1.358       .  S
C285        C286   1.408       .  A
C285        C290   1.396       .  A
C285        F292   1.359       .  S
C286        C287   1.406       .  A
C287        C288   1.400       .  A
C287        F294   1.358       .  S
C288        C289   1.403       .  A
C288        F293   1.358       .  S
C289        C290   1.401       .  A
C290        F291   1.358       .  S
C295        C296   1.399   1_554  A
C295        C300   1.387       .  A
C295        F302   1.358       .  S
C296        C297   1.402       .  A
C297        C298   1.389       .  A
C297        F304   1.358       .  S
C298        C299   1.404       .  A
C298        F303   1.359       .  S
C299        C300   1.405   1_556  A
C300        F301   1.359       .  S
C305        C306   1.402   1_556  A
C305        C310   1.387       .  A
C305        F312   1.358       .  S
C306        C307   1.404       .  A
C307        C308   1.393       .  A
C307        F314   1.359       .  S
C308        C309   1.405       .  A
C308        F313   1.359       .  S
C309        C310   1.400   1_554  A
C310        F311   1.358       .  S
C315        C316   1.404       .  A
C315        C320   1.399       .  A
C315        F322   1.357       .  S
C316        C317   1.404       .  A
C317        C318   1.396       .  A
C317        F324   1.359       .  S
C318        C319   1.406       .  A
C318        F323   1.359       .  S
C319        C320   1.404       .  A
C320        F321   1.357       .  S
C325        C326   1.400       .  A
C325        C330   1.395       .  A
C325        F332   1.358       .  S
C326        C327   1.402       .  A
C327        C328   1.384       .  A
C327        F334   1.359       .  S
C328        C329   1.404       .  A
C328        F333   1.358       .  S
C329        C664   1.460       .  S
C329        C330   1.408       .  A
C330        F835   1.358       .  S
F331        C834   1.358       .  S
C335        C336   1.408       .  A
C335        C340   1.401       .  A
C335        F342   1.358       .  S
C336        C337   1.411       .  A
C337        C338   1.400       .  A
C337        F344   1.358       .  S
C338        C339   1.410       .  A
C338        F343   1.358       .  S
C339        C340   1.412       .  A
C340        F341   1.358       .  S
C345        C346   1.406       .  A
C345        C350   1.399       .  A
C345        F352   1.359       .  S
C346        C347   1.402       .  A
C347        C348   1.401       .  A
C347        F354   1.358       .  S
C348        C349   1.410       .  A
C348        F353   1.357       .  S
C349        C350   1.405       .  A
C350        F351   1.358       .  S
C355        C356   1.412       .  A
C355        C360   1.402       .  A
C355        F362   1.358       .  S
C356        C357   1.410       .  A
C357        C358   1.398       .  A
C357        F364   1.358       .  S
C358        C359   1.408       .  A
C358        F363   1.358       .  S
C359        C360   1.408       .  A
C360        F361   1.358       .  S
C365        C370   1.395       .  A
C365       C1374   1.404       .  A
C365        F372   1.358       .  S
C366       C1373   1.404       .  A
C366       C1375   1.405       .  A
C367        C368   1.404       .  A
C367       C1374   1.405       .  A
C367       F1382   1.358       .  S
C368        C369   1.411       .  A
C368        F373   1.357       .  S
C369        C370   1.409       .  A
C370        F371   1.358       .  S
F374       C1375   1.358       .  S
C375        C376   1.415       .  A
C375        C380   1.413       .  A
C375        F382   1.357       .  S
C376        C564   1.509   1_545  S
C376        C377   1.409       .  A
C377        C378   1.406       .  A
C377        F888   1.358       .  S
C378        C379   1.418       .  A
C378        F383   1.358       .  S
C379        C380   1.413       .  A
C380        F381   1.357       .  S
F384        C881   1.358       .  S
C385        C386   1.413       .  A
C385        C390   1.406       .  A
C385        F392   1.358       .  S
C386        C387   1.406       .  A
C387        C388   1.406       .  A
C387        F394   1.358       .  S
C388        C389   1.416       .  A
C388        F393   1.357       .  S
C389        C390   1.412       .  A
C390        F391   1.358       .  S
C395        C396   1.410       .  A
C395        C400   1.405       .  A
C395        F906   1.358       .  S
C396        C397   1.412       .  A
C397        C398   1.411       .  A
C397        F404   1.358       .  S
C398        C399   1.409       .  A
C398        F403   1.357       .  S
C399        C400   1.408       .  A
C400        F401   1.358       .  S
F402        C899   1.358   1_545  S
C405        C406   1.417   1_554  A
C405        C410   1.424       .  A
C405        F412   1.357       .  S
C406        C407   1.416       .  A
C407        C408   1.420       .  A
C407        F414   1.358       .  S
C408        C409   1.418       .  A
C408        F413   1.358       .  S
C409        C410   1.418   1_556  A
C410        F411   1.357       .  S
C415        C416   1.420   1_556  A
C415        C420   1.426       .  A
C415        F422   1.357       .  S
C416        C417   1.420       .  A
C417        C418   1.417       .  A
C417        F424   1.357       .  S
C418        C419   1.415       .  A
C418        F423   1.358       .  S
C419        C420   1.417   1_554  A
C420        F421   1.357       .  S
C425        C426   1.405       .  A
C425        C430   1.395       .  A
C425        F432   1.358       .  S
C426        C427   1.406   1_554  A
C427        C428   1.400       .  A
C427        F434   1.358       .  S
C428        C429   1.410   1_556  A
C428        F433   1.358       .  S
C429        C430   1.409       .  A
C430        F431   1.358       .  S
C435        C436   1.410   1_554  A
C435        C440   1.393       .  A
C435        F442   1.358       .  S
C436        C437   1.409       .  A
C437        C438   1.392       .  A
C437        F444   1.358       .  S
C438        C439   1.404       .  A
C438        F443   1.359       .  S
C439        C440   1.404   1_556  A
C440        F441   1.358       .  S
C445        C446   1.412       .  A
C445        C450   1.414       .  A
C445        F452   1.357       .  S
C446        C447   1.414       .  A
C447        C448   1.403       .  A
C447        F454   1.358       .  S
C448        C449   1.407       .  A
C448        F453   1.358       .  S
C449        C450   1.410       .  A
C450        F451   1.357       .  S
C455        C456   1.416       .  A
C455        C460   1.419       .  A
C455        F462   1.357       .  S
C456        C457   1.421       .  A
C457        C458   1.414       .  A
C457        F464   1.358       .  S
C458        C459   1.411       .  A
C458        F463   1.358       .  S
C459        C460   1.415       .  A
C460        F461   1.357       .  S
C465        C466   1.417       .  A
C465        C470   1.420       .  A
C465        F472   1.357       .  S
C466        C467   1.417       .  A
C467        C468   1.414       .  A
C467        F474   1.358       .  S
C468        C469   1.414       .  A
C468        F473   1.358       .  S
C469        C470   1.415       .  A
C470       F1479   1.357       .  S
F471       C1478   1.357       .  S
C475        C480   1.389       .  A
C475       C1484   1.411       .  A
C475       F1490   1.359       .  S
C476       C1483   1.411       .  A
C476       C1485   1.408       .  A
C477        C478   1.388       .  A
C477       C1484   1.408       .  A
C477       F1492   1.358       .  S
C478        C479   1.401       .  A
C478        F483   1.359       .  S
C479        C480   1.403       .  A
C480        F985   1.359       .  S
F481        C984   1.359       .  S
F482       C1483   1.359       .  S
F484       C1485   1.358       .  S
C485        C486   1.412       .  A
C485        C490   1.387       .  A
C485        F492   1.359       .  S
C486        C487   1.407       .  A
C487        C488   1.389       .  A
C487        F494   1.358       .  S
C488        C489   1.403       .  A
C488        F493   1.358       .  S
C489        C490   1.398       .  A
C490        F491   1.359       .  S
C495        C496   1.417   1_565  A
C495       C1004   1.410       .  A
C495        F502   1.357   1_565  S
C496       C1001   1.409   1_545  A
C497        C498   1.402       .  A
C497       C1000   1.409       .  A
C497        F504   1.358       .  S
C498        C499   1.407       .  A
C498        F503   1.358       .  S
C499        C500   1.404       .  A
C500        C999   1.409       .  A
C500       F1005   1.358       .  S
F501       C1004   1.358       .  S
O505       Ni511   1.912       .  S
O505        C526   1.268       .  A
O506       Ni529   1.911       .  S
O506        C515   1.270       .  A
O507       Ni511   1.912       .  S
O507       Ni529   1.909       .  S
O507       Ni523   1.912       .  S
O507        H530   0.967       .  S
C508        O525   1.282       .  A
C508        O517   1.281       .  A
C508        C990   1.468       .  S
O509       Ni528   1.952       .  S
O509        C515   1.281       .  A
O510       Ni528   1.935       .  S
O510        C512   1.274       .  A
Ni511       O516   1.929       .  S
C512        O522   1.277       .  A
C512        C963   1.519       .  S
O513        C519   1.269       .  A
O514        C519   1.276       .  A
C515       C1000   1.499       .  S
O516        C518   1.273       .  A
O517       Ni528   1.910       .  S
C518        O524   1.282       .  A
C518        C970   1.529       .  S
C519        C983   1.457       .  S
H520        O521   0.966       .  S
O521       Ni529   1.879       .  S
O521       Ni523   1.907       .  S
O521       Ni528   1.891       .  S
O522       Ni523   1.951       .  S
Ni523       O527   1.943       .  S
Ni523       O525   1.907       .  S
O524       Ni529   1.978       .  S
C526        O527   1.272       .  A
C526        C950   1.504       .  S
O531       Ni537   1.926       .  S
O532       Ni555   1.930       .  S
O532        C541   1.277       .  A
O533       Ni537   1.912       .  S
O533       Ni555   1.910   1_554  S
O533        H556   0.967       .  S
C534        O551   1.282   1_556  A
C534        O543   1.283       .  A
C534        C940   1.473       .  S
O535       Ni554   1.947       .  S
O536       Ni554   1.936       .  S
O536        C538   1.273       .  A
Ni537       O540   1.919       .  S
Ni537       O542   1.939       .  S
C538        O548   1.284   1_556  A
C538        C910   1.530       .  S
O539       Ni555   1.912       .  S
O539        C545   1.277   1_556  A
O540        C545   1.277       .  A
C541        C953   1.499       .  S
O542        C544   1.280       .  A
O543       Ni554   1.920       .  S
C544        O550   1.288   1_554  A
C544        C920   1.543       .  S
C545        C930   1.475       .  S
H546        O547   0.966       .  S
O547       Ni549   1.899   1_556  S
O547       Ni554   1.891       .  S
O548       Ni549   1.968       .  S
Ni549       O553   1.921       .  S
Ni549       O551   1.918       .  S
O550       Ni555   1.991       .  S
C552        O553   1.269       .  A
C552        C900   1.494       .  S
O557       Ni563   1.904       .  S
O557        C578   1.265       .  A
O558       Ni581   1.917       .  S
O558        C567   1.273       .  A
O559       Ni563   1.914       .  S
O559       Ni581   1.908       .  S
O559       Ni575   1.943       .  S
O559        H582   0.966       .  S
C560        O577   1.287       .  A
C560        O569   1.283       .  A
C560        C870   1.474   1_455  S
O561       Ni580   1.950       .  S
O561        C567   1.281       .  A
O562       Ni580   1.923       .  S
O562        C564   1.271       .  A
Ni563       O566   1.925       .  S
Ni563       O568   1.910       .  S
C564        O574   1.275       .  A
O565       Ni581   1.920       .  S
O565        C571   1.277       .  A
O566        C571   1.276       .  A
C567        C903   1.493       .  S
O568        C570   1.271       .  A
O569       Ni580   1.921       .  S
C570        O576   1.280       .  A
C570        C893   1.506       .  S
C571        C863   1.486       .  S
H572        O573   0.966       .  S
O573       Ni581   1.908       .  S
O573       Ni575   1.899       .  S
O573       Ni580   1.890       .  S
O574       Ni575   1.941       .  S
Ni575       O579   1.936       .  S
Ni575       O577   1.940       .  S
O576       Ni581   1.956       .  S
C578        O579   1.269       .  A
C578       C1003   1.486       .  S
O583       Ni589   1.919       .  S
O583        C604   1.270       .  A
O584       Ni607   1.897       .  S
O584        C593   1.261       .  A
O585       Ni589   1.912       .  S
O585       Ni607   1.902       .  S
O585       Ni601   1.910       .  S
O585        H608   0.967       .  S
C586        O603   1.273       .  A
C586        O595   1.278       .  A
C586        C980   1.466       .  S
O587       Ni606   1.933       .  S
O587        C593   1.269       .  A
O588       Ni606   1.900       .  S
O588        C590   1.264       .  A
Ni589       O592   1.923       .  S
Ni589       O594   1.918       .  S
C590        O600   1.263       .  A
C590        C830   1.457       .  S
O591       Ni607   1.881       .  S
O591        C597   1.257       .  A
O592        C597   1.272       .  A
C593        C823   1.464       .  S
O594        C596   1.276       .  A
O595       Ni606   1.913       .  S
C596        O602   1.280       .  A
C596        C843   1.494       .  S
C597        C993   1.450       .  S
H598        O599   0.965       .  S
O599       Ni607   1.877       .  S
O599       Ni601   1.902       .  S
O599       Ni606   1.907       .  S
O600       Ni601   1.894       .  S
Ni601       O605   1.917       .  S
Ni601       O603   1.890       .  S
O602       Ni607   1.951       .  S
C604        O605   1.269       .  A
C604        C850   1.473       .  S
O609       Ni615   1.903       .  S
O609        C630   1.266       .  A
O610       Ni633   1.893       .  S
O610        C619   1.260       .  A
O611       Ni615   1.917       .  S
O611       Ni633   1.913   1_554  S
O611       Ni627   1.911       .  S
O611        H634   0.957       .  S
C612        O629   1.266       .  A
C612        O621   1.274   1_554  A
C612        C810   1.446       .  S
O613       Ni632   1.933       .  S
O613        C619   1.269       .  A
O614       Ni632   1.895       .  S
O614        C616   1.266       .  A
Ni615       O618   1.910       .  S
Ni615       O620   1.899       .  S
C616        O626   1.270   1_556  A
C616        C943   1.467       .  S
O617       Ni633   1.880       .  S
O617        C623   1.254       .  A
O618        C623   1.269   1_554  A
C619        C820   1.473       .  S
O620        C622   1.270       .  A
O621       Ni632   1.909       .  S
C622        O628   1.277   1_554  A
C622        C933   1.486       .  S
C623        C800   1.439       .  S
H624        O625   0.967       .  S
O625       Ni633   1.879       .  S
O625       Ni627   1.920   1_556  S
O625       Ni632   1.908       .  S
O626       Ni627   1.922       .  S
Ni627       O631   1.917       .  S
Ni627       O629   1.886       .  S
O628       Ni633   1.947       .  S
C630        O631   1.269       .  A
C630        C790   1.470       .  S
O635       Ni641   1.939       .  S
O635        C656   1.275       .  A
O636       Ni659   1.908       .  S
O636        C645   1.268       .  A
O637       Ni641   1.898       .  S
O637       Ni659   1.892       .  S
O637       Ni653   1.898       .  S
O637        H660   0.967       .  S
C638        O655   1.280       .  A
C638        O647   1.278       .  A
C638        C780   1.464       .  S
O639       Ni658   1.928       .  S
O639        C645   1.274       .  A
O640       Ni658   1.918       .  S
O640        C642   1.269       .  A
Ni641       O644   1.941       .  S
Ni641       O646   1.918       .  S
C642        O652   1.267       .  A
C642        C873   1.482       .  S
O643       Ni659   1.883       .  S
O643        C649   1.269       .  A
O644        C649   1.281       .  A
C645        C793   1.465       .  S
O646        C648   1.273       .  A
O647       Ni658   1.912       .  S
C648        O654   1.275       .  A
C648        C860   1.494       .  S
C649        C770   1.476       .  S
H650        O651   0.965       .  S
O651       Ni659   1.893       .  S
O651       Ni653   1.886       .  S
O651       Ni658   1.888       .  S
O652       Ni653   1.917       .  S
Ni653       O657   1.907       .  S
Ni653       O655   1.910       .  S
O654       Ni659   1.945       .  S
C656        O657   1.268       .  A
C656        C853   1.483       .  S
O661       Ni667   1.915       .  S
O661        C682   1.268       .  A
O662       Ni685   1.928       .  S
O662        C671   1.279       .  A
O663       Ni667   1.908       .  S
O663       Ni685   1.909       .  S
O663       Ni679   1.934       .  S
O663        H686   0.966       .  S
C664        O681   1.283       .  A
C664        O673   1.280       .  A
O665       Ni684   1.928       .  S
O665        C671   1.278       .  A
O666       Ni684   1.932       .  S
O666       C1676   1.272       .  A
Ni667       O670   1.923       .  S
Ni667       O672   1.919       .  S
C668       O1674   1.272   1_455  A
C668       O1686   1.283   1_455  A
C668        C973   1.525       .  S
O669       Ni685   1.927       .  S
O669        C675   1.282       .  A
O670        C675   1.277       .  A
C671        C750   1.491       .  S
O672        C674   1.273       .  A
O673       Ni684   1.912       .  S
C674        O680   1.286       .  A
C674        C960   1.526       .  S
C675        C840   1.493       .  S
H676        O677   0.966       .  S
O677       Ni685   1.912       .  S
O677       Ni679   1.891       .  S
O677       Ni684   1.883       .  S
O678       Ni679   1.964       .  S
O678       C1676   1.283       .  A
Ni679       O683   1.924       .  S
Ni679       O681   1.915       .  S
O680       Ni685   1.981       .  S
C682        O683   1.269       .  A
C682        C760   1.494       .  S
O687       Ni693   1.926       .  S
O687       C1716   1.272   1_455  A
O688       Ni711   1.902       .  S
O688        C697   1.267       .  A
O689       Ni693   1.910       .  S
O689       Ni711   1.907   1_556  S
O689      Ni1713   1.900   1_455  S
O689        H712   0.966       .  S
C690        O707   1.273   1_554  A
C690        O699   1.284       .  A
C690        C803   1.452   1_554  S
O691       Ni710   1.965       .  S
O691       C1705   1.285       .  A
O692       Ni710   1.938       .  S
O692        C694   1.275       .  A
Ni693       O696   1.927       .  S
Ni693       O698   1.937       .  S
C694        O704   1.286   1_554  A
C694        C923   1.538       .  S
O695       Ni711   1.871       .  S
O695        C701   1.265       .  A
O696        C701   1.280   1_556  A
C697       O1699   1.285   1_455  A
C697        C743   1.497       .  S
O698        C700   1.273       .  A
O699       Ni710   1.921       .  S
C700        O706   1.283   1_556  A
C700        C913   1.536       .  S
C701        C813   1.447       .  S
H702       O1711   0.967   1_455  S
O703      Ni1719   1.870       .  S
O703       Ni705   1.902   1_554  S
O703       Ni710   1.883       .  S
O703       H1710   0.967       .  S
O704       Ni705   1.976       .  S
Ni705       O709   1.923       .  S
Ni705       O707   1.881       .  S
Ni705      O1697   1.900       .  S
O706       Ni711   1.982       .  S
C708       O1695   1.272       .  A
C708        O709   1.271       .  A
C708        C753   1.491       .  S
Ni711      O1711   1.870   1_455  S
O713       Ni719   1.891       .  S
O713        C734   1.263       .  A
O714       Ni737   1.918       .  S
O714        C723   1.272       .  A
O715       Ni719   1.906       .  S
O715       Ni737   1.896       .  S
O715       Ni731   1.926       .  S
O715        H738   0.967       .  S
C716        O733   1.288       .  A
C716        O725   1.279       .  A
C716        C773   1.466       .  S
O717       Ni736   1.938       .  S
O717        C723   1.276       .  A
O718       Ni736   1.928       .  S
O718        C720   1.271       .  A
Ni719      O1730   1.919       .  S
Ni719       O724   1.907       .  S
C720        O730   1.267       .  A
C720        C890   1.499       .  S
O721      Ni1745   1.886       .  S
O721        C727   1.270       .  A
O722      Ni1727   1.919       .  S
O722        C727   1.276       .  A
C723        C763   1.480   1_455  S
O724        C726   1.269       .  A
O725       Ni736   1.904       .  S
C726        O732   1.282       .  A
C726        C883   1.512       .  S
C727        C783   1.472       .  S
H728        O729   0.966       .  S
O729       Ni737   1.890       .  S
O729       Ni731   1.899       .  S
O729       Ni736   1.895       .  S
O730       Ni731   1.922       .  S
Ni731       O735   1.943       .  S
Ni731       O733   1.929       .  S
O732       Ni737   1.968       .  S
C734        O735   1.269       .  A
C734        C740   1.493       .  S
Ni737      O1729   1.886   1_455  S
C739        C740   1.413       .  A
C739        C744   1.403       .  A
C739        F746   1.355       .  S
C740        C741   1.404       .  A
C741        C742   1.409       .  A
C741        F748   1.357       .  S
C742        C743   1.415       .  A
C742        F747   1.357       .  S
C743        C744   1.405       .  A
C744       F1753   1.358   1_455  S
F745       C1752   1.358       .  S
C749        C750   1.409       .  A
C749        C754   1.410       .  A
C749        F756   1.357       .  S
C750        C751   1.409       .  A
C751       C1760   1.397       .  A
C751       F1766   1.358       .  S
C752       C1759   1.397   1_455  A
C752       C1761   1.408   1_455  A
C752        F757   1.358       .  S
C753       C1760   1.408       .  A
C753        C754   1.411       .  A
C754        F755   1.357       .  S
F758       C1759   1.358   1_455  S
C759       C1768   1.412       .  A
C759        C764   1.405   1_655  A
C759        F766   1.357       .  S
C760       C1767   1.412       .  A
C760        C761   1.413       .  A
C761        C762   1.401       .  A
C761        F768   1.358       .  S
C762       C1771   1.403       .  A
C762        F767   1.358       .  S
C763       C1770   1.403       .  A
C763        C764   1.405   1_655  A
C764        F765   1.358       .  S
C769        C770   1.411       .  A
C769        C774   1.390       .  A
C769        F776   1.358       .  S
C770        C771   1.409       .  A
C771        C772   1.393       .  A
C771        F778   1.359       .  S
C772        C773   1.407       .  A
C772        F777   1.359       .  S
C773        C774   1.401       .  A
C774        F775   1.358       .  S
C779        C784   1.386       .  A
C780        C781   1.405   1_565  A
C781        F788   1.358   1_545  S
C782        C783   1.410       .  A
C782       F1795   1.359       .  S
C783        C784   1.409       .  A
C784        F785   1.358       .  S
F787       C1790   1.359       .  S
C789        C790   1.408       .  A
C789        C794   1.398       .  A
C789        F796   1.359       .  S
C790        C791   1.405       .  A
C791        C792   1.399       .  A
C791        F798   1.358       .  S
C792        C793   1.403       .  A
C792        F797   1.357       .  S
C793        C794   1.402       .  A
C794        F795   1.358       .  S
C799        C800   1.398   1_554  A
C799        C804   1.387       .  A
C799        F806   1.358       .  S
C800        C801   1.401       .  A
C801        C802   1.386       .  A
C801        F808   1.358       .  S
C802        C803   1.405       .  A
C802        F807   1.359       .  S
C803        C804   1.405   1_556  A
C804        F805   1.358       .  S
C809        C810   1.402   1_556  A
C809        C814   1.385       .  A
C809        F816   1.358       .  S
C810        C811   1.403       .  A
C811        C812   1.390       .  A
C811        F818   1.359       .  S
C812        C813   1.404       .  A
C812        F817   1.359       .  S
C813        C814   1.399   1_554  A
C814        F815   1.358       .  S
C819        C820   1.407       .  A
C819        C824   1.399       .  A
C819        F826   1.358       .  S
C820        C821   1.407       .  A
C821        C822   1.397       .  A
C821        F828   1.358       .  S
C822        C823   1.403       .  A
C822        F827   1.359       .  S
C823        C824   1.401       .  A
C824        F825   1.358       .  S
C829        C830   1.401       .  A
C829        C834   1.395       .  A
C829        F836   1.358       .  S
C830        C831   1.404       .  A
C831        C832   1.387       .  A
C831        F838   1.359       .  S
C832        C833   1.404       .  A
C832        F837   1.358   1_565  S
C833        C834   1.408       .  A
C839        C840   1.408       .  A
C839        C844   1.402       .  A
C839        F846   1.358       .  S
C840        C841   1.413       .  A
C841        C842   1.401       .  A
C841        F848   1.358       .  S
C842        C843   1.408       .  A
C842        F847   1.358       .  S
C843        C844   1.413       .  A
C844        F845   1.358       .  S
C849        C850   1.407       .  A
C849        C854   1.402       .  A
C849        F856   1.359       .  S
C850        C851   1.402       .  A
C851        C852   1.402       .  A
C851        F858   1.357       .  S
C852        C853   1.411       .  A
C852        F857   1.357       .  S
C853        C854   1.406       .  A
C854        F855   1.358       .  S
C859        C860   1.414       .  A
C859        C864   1.403       .  A
C859        F866   1.358       .  S
C860        C861   1.410       .  A
C861        C862   1.399       .  A
C861        F868   1.357       .  S
C862        C863   1.407       .  A
C862        F867   1.358       .  S
C863        C864   1.408       .  A
C864        F865   1.358       .  S
C869       C1878   1.403       .  A
C869        C874   1.394       .  A
C869        F876   1.359       .  S
C870       C1877   1.403       .  A
C870       C1879   1.405       .  A
C871       C1878   1.405       .  A
C871        C872   1.404       .  A
C871       F1886   1.358       .  S
C872        C873   1.410       .  A
C872        F877   1.358       .  S
C873        C874   1.409       .  A
C874        F875   1.358       .  S
F878       C1879   1.358       .  S
C879        C880   1.415       .  A
C879        C884   1.413       .  A
C879        F886   1.357       .  S
C880        C881   1.409       .  A
C881        C882   1.403       .  A
C882        C883   1.417       .  A
C882        F887   1.358       .  S
C883        C884   1.413       .  A
C884        F885   1.357       .  S
C889        C890   1.414       .  A
C889        C894   1.407       .  A
C889        F896   1.358       .  S
C890        C891   1.406       .  A
C891        C892   1.404       .  A
C891        F898   1.358       .  S
C892        C893   1.417       .  A
C892        F897   1.357       .  S
C893        C894   1.411       .  A
C894        F895   1.358       .  S
C899        C900   1.409       .  A
C899        C904   1.403       .  A
C900        C901   1.411       .  A
C901        C902   1.410       .  A
C901        F908   1.358       .  S
C902        C903   1.409       .  A
C902        F907   1.358       .  S
C903        C904   1.408       .  A
C904        F905   1.358   1_565  S
C909        C910   1.417   1_554  A
C909        C914   1.424       .  A
C909        F916   1.357       .  S
C910        C911   1.415       .  A
C911        C912   1.419       .  A
C911        F918   1.358       .  S
C912        C913   1.418       .  A
C912        F917   1.358       .  S
C913        C914   1.418   1_556  A
C914        F915   1.357       .  S
C919        C920   1.421   1_556  A
C919        C924   1.428       .  A
C919        F926   1.357       .  S
C920        C921   1.419       .  A
C921        C922   1.417       .  A
C921        F928   1.357       .  S
C922        C923   1.416       .  A
C922        F927   1.358       .  S
C923        C924   1.419   1_554  A
C924        F925   1.357       .  S
C929        C930   1.406       .  A
C929        C934   1.394       .  A
C929        F936   1.359       .  S
C930        C931   1.406   1_554  A
C931        C932   1.399       .  A
C931        F938   1.358       .  S
C932        C933   1.411   1_556  A
C932        F937   1.358       .  S
C933        C934   1.411       .  A
C934        F935   1.358       .  S
C939        C940   1.409   1_554  A
C939        C944   1.393       .  A
C939        F946   1.358       .  S
C940        C941   1.408       .  A
C941        C942   1.393       .  A
C941        F948   1.358       .  S
C942        C943   1.405       .  A
C942        F947   1.359       .  S
C943        C944   1.404   1_556  A
C944        F945   1.358       .  S
C949        C950   1.413       .  A
C949        C954   1.415       .  A
C949        F956   1.357       .  S
C950        C951   1.413       .  A
C951        C952   1.402       .  A
C951        F958   1.358       .  S
C952        C953   1.407       .  A
C952        F957   1.358       .  S
C953        C954   1.411       .  A
C954        F955   1.357       .  S
C959        C960   1.415       .  A
C959        C964   1.419       .  A
C959        F966   1.357       .  S
C960        C961   1.420       .  A
C961        C962   1.411       .  A
C961        F968   1.358       .  S
C962        C963   1.410       .  A
C962        F967   1.358       .  S
C963        C964   1.416       .  A
C964        F965   1.357       .  S
C969        C970   1.417       .  A
C969        C974   1.421       .  A
C969        F976   1.357       .  S
C970        C971   1.417       .  A
C971        C972   1.414       .  A
C971        F978   1.358       .  S
C972        C973   1.414       .  A
C972        F977   1.357       .  S
C973        C974   1.416       .  A
C974       F1983   1.356       .  S
F975       C1982   1.356       .  S
C979       C1988   1.409       .  A
C979        C984   1.387       .  A
C979       F1994   1.359       .  S
C980       C1987   1.409       .  A
C980       C1989   1.408       .  A
C981       C1988   1.408       .  A
C981        C982   1.388       .  A
C981       F1996   1.359       .  S
C982        C983   1.403       .  A
C982        F987   1.359       .  S
C983        C984   1.403       .  A
F986       C1987   1.359       .  S
F988       C1989   1.359       .  S
C989        C990   1.412       .  A
C989        C994   1.387       .  A
C989        F996   1.359       .  S
C990        C991   1.407       .  A
C991        C992   1.389       .  A
C991        F998   1.358       .  S
C992        C993   1.403       .  A
C992        F997   1.357       .  S
C993        C994   1.397       .  A
C994        F995   1.359       .  S
C999       C1000   1.416       .  A
C999       F1006   1.358       .  S
C1001      C1002   1.401       .  A
C1001      F1008   1.357   1_565  S
C1002      C1003   1.407       .  A
C1002      F1007   1.358       .  S
C1003      C1004   1.404       .  A
O1009     Ni1015   1.908       .  S
O1009      C1030   1.267       .  A
O1010     Ni1033   1.915       .  S
O1010      C1019   1.271       .  A
O1011     Ni1015   1.916       .  S
O1011     Ni1033   1.909       .  S
O1011     Ni1027   1.913       .  S
O1011      H1034   0.966       .  S
C1012      O1029   1.282       .  A
C1012      O1021   1.282       .  A
C1012      C1494   1.469       .  S
O1013     Ni1032   1.951       .  S
O1013      C1019   1.282       .  A
O1014     Ni1032   1.937       .  S
O1014      C1016   1.274       .  A
Ni1015     O1522   1.918   1_545  S
Ni1015     O1020   1.929       .  S
C1016      O1026   1.279       .  A
C1016      C1467   1.521       .  S
O1017     Ni1537   1.882       .  S
O1017      C1023   1.268       .  A
O1018     Ni1519   1.918       .  S
O1018      C1023   1.277       .  A
C1019      C1504   1.500       .  S
O1020      C1022   1.273       .  A
O1021     Ni1032   1.910       .  S
C1022      O1028   1.282       .  A
C1022      C1474   1.528       .  S
C1023      C1487   1.456       .  S
H1024      O1025   0.966       .  S
O1025     Ni1033   1.880       .  S
O1025     Ni1027   1.906       .  S
O1025     Ni1032   1.888       .  S
O1026     Ni1027   1.954       .  S
Ni1027     O1031   1.945       .  S
Ni1027     O1029   1.907       .  S
O1028     Ni1033   1.976       .  S
C1030      O1031   1.272       .  A
C1030      C1454   1.506       .  S
Ni1033     O1521   1.881   1_545  S
O1035     Ni1041   1.927   1_565  S
O1035      C1560   1.274       .  A
O1036     Ni1059   1.929       .  S
O1036      C1045   1.278       .  A
O1037     Ni1041   1.913       .  S
O1037     Ni1059   1.912   1_554  S
O1037     Ni1557   1.932   1_545  S
O1037      H1060   0.967       .  S
C1038      O1055   1.281   1_556  A
C1038      O1047   1.282       .  A
C1038      C1444   1.475       .  S
O1039     Ni1058   1.945       .  S
O1039      C1549   1.281       .  A
O1040     Ni1058   1.936       .  S
O1040      C1042   1.273       .  A
Ni1041     O1044   1.918       .  S
Ni1041     O1046   1.938       .  S
C1042      O1052   1.285   1_556  A
C1042      C1414   1.533       .  S
O1043     Ni1059   1.914       .  S
O1043      C1049   1.277   1_556  A
O1044      C1049   1.276       .  A
C1045      O1543   1.281   1_545  A
C1045      C1457   1.499       .  S
O1046      C1048   1.279       .  A
O1047     Ni1058   1.918       .  S
C1048      O1054   1.289   1_554  A
C1048      C1424   1.541       .  S
C1049      C1434   1.474       .  S
H1050      O1051   0.966       .  S
O1051     Ni1563   1.910       .  S
O1051     Ni1053   1.902   1_556  S
O1051     Ni1058   1.892       .  S
O1052     Ni1053   1.970       .  S
Ni1053     O1057   1.925       .  S
Ni1053     O1055   1.916       .  S
Ni1053     O1541   1.930       .  S
O1054     Ni1059   1.989       .  S
C1056      O1539   1.274       .  A
C1056      O1057   1.270       .  A
C1056      C1404   1.499       .  S
Ni1059     O1555   1.909   1_545  S
O1061     Ni1067   1.906       .  S
O1061      C1082   1.265       .  A
O1062     Ni1085   1.922       .  S
O1062      C1071   1.274       .  A
O1063     Ni1067   1.915       .  S
O1063     Ni1085   1.910       .  S
O1063     Ni1079   1.940       .  S
O1063      H1086   0.966       .  S
C1064      O1081   1.286       .  A
C1064      O1073   1.283       .  A
C1064      C1374   1.475       .  S
O1065     Ni1084   1.952       .  S
O1065      C1071   1.281       .  A
O1066     Ni1084   1.919       .  S
O1066      C1068   1.271       .  A
Ni1067     O1070   1.923       .  S
Ni1067     O1072   1.914       .  S
C1068      O1078   1.274       .  A
C1068      C1888   1.506       .  S
O1069     Ni1085   1.919       .  S
O1069      C1075   1.277       .  A
O1070      C1075   1.276       .  A
C1071      C1407   1.496       .  S
O1072      C1074   1.272       .  A
O1073     Ni1084   1.923       .  S
C1074      O1080   1.279       .  A
C1074      C1397   1.505       .  S
C1075      C1367   1.485       .  S
H1076      O1077   0.966       .  S
O1077     Ni1085   1.907       .  S
O1077     Ni1079   1.900       .  S
O1077     Ni1084   1.890       .  S
O1078     Ni1079   1.939       .  S
Ni1079     O1083   1.933       .  S
Ni1079     O1081   1.937       .  S
O1080     Ni1085   1.953       .  S
C1082      O1083   1.268       .  A
C1082      C1507   1.486       .  S
O1087     Ni1093   1.923       .  S
O1087      C1108   1.270       .  A
O1088     Ni1111   1.899       .  S
O1088      C1097   1.263       .  A
O1089     Ni1093   1.910       .  S
O1089     Ni1111   1.902       .  S
O1089     Ni1105   1.906       .  S
O1089      H1112   0.967       .  S
C1090      O1107   1.273       .  A
C1090      O1099   1.278       .  A
C1090      C1484   1.469   1_655  S
O1091     Ni1110   1.931       .  S
O1091      C1097   1.270       .  A
O1092     Ni1110   1.898       .  S
O1092      C1094   1.264       .  A
Ni1093     O1096   1.924       .  S
Ni1093     O1098   1.912       .  S
C1094      O1104   1.262       .  A
C1094      C1334   1.451       .  S
O1095     Ni1111   1.882       .  S
O1095      C1101   1.259       .  A
O1096      C1101   1.273       .  A
C1097      C1327   1.469       .  S
O1098      C1100   1.274       .  A
O1099     Ni1110   1.914       .  S
C1100      O1106   1.279       .  A
C1100      C1347   1.493       .  S
C1101      C1497   1.452       .  S
H1102      O1103   0.966       .  S
O1103     Ni1111   1.882       .  S
O1103     Ni1105   1.901       .  S
O1103     Ni1110   1.908       .  S
O1104     Ni1105   1.890       .  S
Ni1105     O1109   1.908       .  S
Ni1105     O1107   1.891       .  S
O1106     Ni1111   1.951       .  S
C1108      O1109   1.267       .  A
C1108      C1354   1.470       .  S
O1113     Ni1119   1.903       .  S
O1113      C1134   1.266       .  A
O1114     Ni1137   1.890       .  S
O1114      C1123   1.258       .  A
O1115     Ni1119   1.915       .  S
O1115     Ni1137   1.912   1_554  S
O1115     Ni1131   1.914       .  S
O1115      H1138   0.957       .  S
C1116      O1133   1.268       .  A
C1116      O1125   1.274   1_554  A
C1116      C1314   1.451       .  S
O1117     Ni1136   1.935       .  S
O1117      C1123   1.268       .  A
O1118     Ni1136   1.894       .  S
O1118      C1120   1.266       .  A
Ni1119     O1122   1.909       .  S
Ni1119     O1124   1.903       .  S
C1120      O1130   1.269   1_556  A
C1120      C1447   1.466       .  S
O1121     Ni1137   1.883       .  S
O1121      C1127   1.255       .  A
O1122      C1127   1.269   1_554  A
C1123      C1324   1.466       .  S
O1124      C1126   1.271       .  A
O1125     Ni1136   1.910       .  S
C1126      O1132   1.275   1_554  A
C1126      C1437   1.483       .  S
C1127      C1304   1.440       .  S
H1128      O1129   0.966       .  S
O1129     Ni1137   1.882       .  S
O1129     Ni1131   1.920   1_556  S
O1129     Ni1136   1.910       .  S
O1130     Ni1131   1.917       .  S
Ni1131     O1135   1.916       .  S
Ni1131     O1133   1.892       .  S
O1132     Ni1137   1.943       .  S
C1134      O1135   1.269       .  A
C1134      C1294   1.471       .  S
O1139     Ni1145   1.931       .  S
O1139      C1160   1.272       .  A
O1140     Ni1163   1.906       .  S
O1140      C1149   1.267       .  A
O1141     Ni1145   1.898       .  S
O1141     Ni1163   1.893       .  S
O1141     Ni1157   1.901       .  S
O1141      H1164   0.967       .  S
C1142      O1159   1.282       .  A
C1142      O1151   1.278       .  A
C1142      C1284   1.462       .  S
O1143     Ni1162   1.929       .  S
O1143      C1149   1.274       .  A
O1144     Ni1162   1.919       .  S
O1144      C1146   1.269       .  A
Ni1145     O1148   1.937       .  S
Ni1145     O1150   1.910       .  S
C1146      O1156   1.265       .  A
C1146      C1377   1.483       .  S
O1147     Ni1163   1.883       .  S
O1147      C1153   1.268       .  A
O1148      C1153   1.280       .  A
C1149      C1297   1.463       .  S
O1150      C1152   1.270       .  A
O1151     Ni1162   1.910       .  S
C1152      O1158   1.275       .  A
C1152      C1364   1.491       .  S
C1153      C1274   1.475       .  S
H1154      O1155   0.966       .  S
O1155     Ni1163   1.891       .  S
O1155     Ni1157   1.886       .  S
O1155     Ni1162   1.890       .  S
O1156     Ni1157   1.914       .  S
Ni1157     O1161   1.909       .  S
Ni1157     O1159   1.913       .  S
O1158     Ni1163   1.945       .  S
C1160      O1161   1.268       .  A
C1160      C1357   1.479       .  S
O1165     Ni1171   1.914       .  S
O1165      C1186   1.269       .  A
O1166     Ni1189   1.927       .  S
O1166      C1175   1.278       .  A
O1167     Ni1171   1.909       .  S
O1167     Ni1189   1.905       .  S
O1167     Ni1183   1.939       .  S
O1167      H1190   0.966       .  S
C1168      O1185   1.284       .  A
C1168      O1177   1.281       .  A
C1168      C1841   1.464   1_545  S
O1169     Ni1188   1.926       .  S
O1169      C1175   1.276       .  A
O1170     Ni1188   1.927       .  S
Ni1171     O1174   1.926       .  S
Ni1171     O1176   1.923       .  S
C1172      C1477   1.523       .  S
O1173     Ni1189   1.923       .  S
O1173      C1179   1.280       .  A
O1174      C1179   1.278       .  A
C1175      C1254   1.487       .  S
O1176      C1178   1.274       .  A
O1177     Ni1188   1.911       .  S
C1178      O1184   1.287       .  A
C1178      C1464   1.529       .  S
C1179      C1344   1.489       .  S
H1180      O1181   0.966       .  S
O1181     Ni1189   1.912       .  S
O1181     Ni1183   1.891       .  S
O1181     Ni1188   1.884       .  S
O1182     Ni1183   1.965       .  S
Ni1183     O1187   1.924       .  S
Ni1183     O1185   1.920       .  S
O1184     Ni1189   1.982       .  S
C1186      O1187   1.268       .  A
C1186      C1264   1.486       .  S
O1191     Ni1197   1.928       .  S
O1192     Ni1215   1.900       .  S
O1192      C1201   1.267       .  A
O1193     Ni1197   1.910       .  S
O1193     Ni1215   1.907   1_556  S
O1193      H1216   0.966       .  S
C1194      O1211   1.274   1_554  A
C1194      O1203   1.284       .  A
C1194      C1307   1.452   1_554  S
O1195     Ni1214   1.961       .  S
O1196     Ni1214   1.935       .  S
O1196      C1198   1.274       .  A
Ni1197     O1200   1.927       .  S
Ni1197     O1202   1.941       .  S
C1198      O1208   1.286   1_554  A
C1198      C1427   1.534       .  S
O1199     Ni1215   1.878       .  S
O1199      C1205   1.266       .  A
O1200      C1205   1.280   1_556  A
C1201      C1247   1.493       .  S
O1202      C1204   1.275       .  A
O1203     Ni1214   1.920       .  S
C1204      O1210   1.283   1_556  A
C1204      C1417   1.538       .  S
C1205      C1317   1.453       .  S
O1207     Ni1209   1.900   1_554  S
O1207     Ni1214   1.884       .  S
O1208     Ni1209   1.976       .  S
Ni1209     O1213   1.920       .  S
Ni1209     O1211   1.886       .  S
O1210     Ni1215   1.980       .  S
C1212      O1213   1.270       .  A
C1212      C1257   1.491       .  S
O1217     Ni1223   1.894       .  S
O1217      C1238   1.265       .  A
O1218     Ni1241   1.923       .  S
O1218      C1227   1.273       .  A
O1219     Ni1223   1.905       .  S
O1219     Ni1241   1.896       .  S
O1219     Ni1235   1.929       .  S
O1219      H1242   0.967       .  S
C1220      O1237   1.288       .  A
C1220      O1229   1.278       .  A
C1220      C1277   1.464       .  S
O1221     Ni1240   1.929       .  S
O1221      C1227   1.275       .  A
O1222     Ni1240   1.929       .  S
O1222      C1224   1.270       .  A
Ni1223     O1228   1.911       .  S
C1224      O1234   1.267       .  A
C1224      C1394   1.497       .  S
O1225      C1231   1.271       .  A
O1226      C1231   1.276   1_455  A
C1227      C1267   1.485       .  S
O1228      C1230   1.271       .  A
O1229     Ni1240   1.899       .  S
C1230      O1236   1.284       .  A
C1230      C1387   1.516       .  S
C1231      C1287   1.472       .  S
H1232      O1233   0.966       .  S
O1233     Ni1241   1.890       .  S
O1233     Ni1235   1.897       .  S
O1233     Ni1240   1.894       .  S
O1234     Ni1235   1.923       .  S
Ni1235     O1239   1.937       .  S
Ni1235     O1237   1.931       .  S
O1236     Ni1241   1.971       .  S
C1238      O1239   1.268       .  A
C1238      C1244   1.491       .  S
C1243      C1244   1.412       .  A
C1243      C1248   1.401       .  A
C1243      F1250   1.356       .  S
C1244      C1245   1.405       .  A
C1245      C1246   1.408       .  A
C1245      F1252   1.358       .  S
C1246      C1247   1.414       .  A
C1246      F1251   1.358       .  S
C1247      C1248   1.405       .  A
C1253      C1254   1.408       .  A
C1253      C1258   1.409       .  A
C1253      F1260   1.357       .  S
C1254      C1255   1.408       .  A
C1256      F1261   1.358       .  S
C1257      C1258   1.411       .  A
C1258      F1259   1.357       .  S
C1263      C1268   1.409       .  A
C1263      F1270   1.358       .  S
C1264      C1265   1.408       .  A
C1265      C1266   1.397       .  A
C1265      F1272   1.358       .  S
C1266      F1271   1.358       .  S
C1267      C1268   1.409       .  A
C1268      F1269   1.358       .  S
C1273      C1274   1.412       .  A
C1273      C1278   1.392       .  A
C1273      F1280   1.358       .  S
C1274      C1275   1.409       .  A
C1275      C1276   1.390       .  A
C1275      F1282   1.359       .  S
C1276      C1277   1.406       .  A
C1276      F1281   1.359       .  S
C1277      C1278   1.401       .  A
C1278      F1279   1.358       .  S
C1283      C1788   1.403   1_545  A
C1283      C1288   1.386       .  A
C1283      F1794   1.359       .  S
C1284      C1787   1.402       .  A
C1284      C1285   1.405       .  A
C1285      C1790   1.393       .  A
C1285      F1292   1.358       .  S
C1286      C1789   1.394       .  A
C1286      C1287   1.410       .  A
C1287      C1288   1.409       .  A
C1288      F1289   1.359       .  S
F1290      C1787   1.359       .  S
C1293      C1294   1.408       .  A
C1293      C1298   1.396       .  A
C1293      F1300   1.359       .  S
C1294      C1295   1.406       .  A
C1295      C1296   1.400       .  A
C1295      F1302   1.358       .  S
C1296      C1297   1.403       .  A
C1296      F1301   1.358       .  S
C1297      C1298   1.401       .  A
C1298      F1299   1.358       .  S
C1303      C1304   1.399   1_554  A
C1303      C1308   1.387       .  A
C1303      F1310   1.358       .  S
C1304      C1305   1.402       .  A
C1305      C1306   1.389       .  A
C1305      F1312   1.358       .  S
C1306      C1307   1.404       .  A
C1306      F1311   1.359       .  S
C1307      C1308   1.405   1_556  A
C1308      F1309   1.359       .  S
C1313      C1314   1.402   1_556  A
C1313      C1318   1.387       .  A
C1313      F1320   1.358       .  S
C1314      C1315   1.404       .  A
C1315      C1316   1.393       .  A
C1315      F1322   1.359       .  S
C1316      C1317   1.405       .  A
C1316      F1321   1.359       .  S
C1317      C1318   1.400   1_554  A
C1318      F1319   1.358       .  S
C1323      C1324   1.404       .  A
C1323      C1328   1.399       .  A
C1323      F1330   1.357       .  S
C1324      C1325   1.404       .  A
C1325      C1326   1.396       .  A
C1325      F1332   1.359       .  S
C1326      C1327   1.406       .  A
C1326      F1331   1.359       .  S
C1327      C1328   1.404       .  A
C1328      F1329   1.357       .  S
C1333      C1334   1.400       .  A
C1333      C1338   1.395       .  A
C1333      F1340   1.358       .  S
C1334      C1335   1.402       .  A
C1335      C1336   1.384       .  A
C1335      F1342   1.359       .  S
C1336      C1337   1.404       .  A
C1336      F1341   1.358       .  S
C1337      C1672   1.460       .  S
C1337      C1338   1.409       .  A
C1338      F1843   1.358       .  S
F1339      C1842   1.358       .  S
C1343      C1344   1.408       .  A
C1343      C1348   1.401       .  A
C1343      F1350   1.358       .  S
C1344      C1345   1.411       .  A
C1345      C1346   1.400       .  A
C1345      F1352   1.358       .  S
C1346      C1347   1.410       .  A
C1346      F1351   1.358       .  S
C1347      C1348   1.412       .  A
C1348      F1349   1.358       .  S
C1353      C1354   1.406       .  A
C1353      C1358   1.399       .  A
C1353      F1360   1.359       .  S
C1354      C1355   1.402       .  A
C1355      C1356   1.401       .  A
C1355      F1362   1.358       .  S
C1356      C1357   1.410       .  A
C1356      F1361   1.357       .  S
C1357      C1358   1.405       .  A
C1358      F1359   1.358       .  S
C1363      C1364   1.412       .  A
C1363      C1368   1.402       .  A
C1363      F1370   1.358       .  S
C1364      C1365   1.410       .  A
C1365      C1366   1.398       .  A
C1365      F1372   1.358       .  S
C1366      C1367   1.408       .  A
C1366      F1371   1.358       .  S
C1367      C1368   1.408       .  A
C1368      F1369   1.358       .  S
C1373      C1378   1.395       .  A
C1373      F1380   1.358   1_655  S
C1375      C1376   1.404       .  A
C1376      C1377   1.411       .  A
C1376      F1381   1.357       .  S
C1377      C1378   1.409       .  A
C1378      F1379   1.358       .  S
C1383      C1384   1.415       .  A
C1383      C1388   1.413       .  A
C1383      F1390   1.357       .  S
C1384      C1572   1.509   1_545  S
C1384      C1385   1.409       .  A
C1385      C1386   1.406       .  A
C1385      F1896   1.358       .  S
C1386      C1387   1.418       .  A
C1386      F1391   1.358       .  S
C1387      C1388   1.413       .  A
C1388      F1389   1.357       .  S
F1392      C1889   1.358       .  S
C1393      C1394   1.413       .  A
C1393      C1398   1.406       .  A
C1393      F1400   1.358       .  S
C1394      C1395   1.406       .  A
C1395      C1396   1.406       .  A
C1395      F1402   1.358       .  S
C1396      C1397   1.416       .  A
C1396      F1401   1.357       .  S
C1397      C1398   1.412       .  A
C1398      F1399   1.358       .  S
C1403      C1404   1.410       .  A
C1403      C1408   1.405       .  A
C1403      F1914   1.358       .  S
C1404      C1405   1.412       .  A
C1405      C1406   1.411       .  A
C1405      F1412   1.358       .  S
C1406      C1407   1.409       .  A
C1406      F1411   1.357       .  S
C1407      C1408   1.408       .  A
C1408      F1409   1.358       .  S
F1410      C1907   1.358   1_545  S
C1413      C1414   1.417   1_554  A
C1413      C1418   1.424       .  A
C1413      F1420   1.357       .  S
C1414      C1415   1.416       .  A
C1415      C1416   1.420       .  A
C1415      F1422   1.358       .  S
C1416      C1417   1.418       .  A
C1416      F1421   1.358       .  S
C1417      C1418   1.418   1_556  A
C1418      F1419   1.357       .  S
C1423      C1424   1.420   1_556  A
C1423      C1428   1.426       .  A
C1423      F1430   1.357       .  S
C1424      C1425   1.420       .  A
C1425      C1426   1.417       .  A
C1425      F1432   1.357       .  S
C1426      C1427   1.415       .  A
C1426      F1431   1.358       .  S
C1427      C1428   1.417   1_554  A
C1428      F1429   1.357       .  S
C1433      C1434   1.405       .  A
C1433      C1438   1.395       .  A
C1433      F1440   1.358       .  S
C1434      C1435   1.406   1_554  A
C1435      C1436   1.400       .  A
C1435      F1442   1.358       .  S
C1436      C1437   1.410   1_556  A
C1436      F1441   1.358       .  S
C1437      C1438   1.409       .  A
C1438      F1439   1.358       .  S
C1443      C1444   1.410   1_554  A
C1443      C1448   1.393       .  A
C1443      F1450   1.358       .  S
C1444      C1445   1.409       .  A
C1445      C1446   1.392       .  A
C1445      F1452   1.358       .  S
C1446      C1447   1.404       .  A
C1446      F1451   1.359       .  S
C1447      C1448   1.404   1_556  A
C1448      F1449   1.358       .  S
C1453      C1454   1.412       .  A
C1453      C1458   1.414       .  A
C1453      F1460   1.357       .  S
C1454      C1455   1.414       .  A
C1455      C1456   1.403       .  A
C1455      F1462   1.358       .  S
C1456      C1457   1.407       .  A
C1456      F1461   1.358       .  S
C1457      C1458   1.410       .  A
C1458      F1459   1.357       .  S
C1463      C1464   1.416       .  A
C1463      C1468   1.419       .  A
C1463      F1470   1.357       .  S
C1464      C1465   1.421       .  A
C1465      C1466   1.414       .  A
C1465      F1472   1.358       .  S
C1466      C1467   1.411       .  A
C1466      F1471   1.358       .  S
C1467      C1468   1.415       .  A
C1468      F1469   1.357       .  S
C1473      C1474   1.417       .  A
C1473      C1478   1.420       .  A
C1473      F1480   1.357       .  S
C1474      C1475   1.417       .  A
C1475      C1476   1.414       .  A
C1475      F1482   1.358       .  S
C1476      C1477   1.414       .  A
C1476      F1481   1.358       .  S
C1477      C1478   1.415       .  A
C1483      C1488   1.389       .  A
C1485      C1486   1.388       .  A
C1486      C1487   1.401       .  A
C1486      F1491   1.359       .  S
C1487      C1488   1.403       .  A
C1488      F1993   1.359       .  S
F1489      C1992   1.359       .  S
C1493      C1494   1.412       .  A
C1493      C1498   1.387       .  A
C1493      F1500   1.359       .  S
C1494      C1495   1.407       .  A
C1495      C1496   1.389       .  A
C1495      F1502   1.358       .  S
C1496      C1497   1.403       .  A
C1496      F1501   1.358       .  S
C1497      C1498   1.398       .  A
C1498      F1499   1.359       .  S
C1503      C1504   1.417   1_565  A
C1503      C2012   1.410       .  A
C1503      F1510   1.357   1_565  S
C1504      C2009   1.409   1_545  A
C1505      C2008   1.409       .  A
C1505      C1506   1.402       .  A
C1505      F1512   1.358       .  S
C1506      C1507   1.407       .  A
C1506      F1511   1.358       .  S
C1507      C1508   1.404       .  A
C1508      C2007   1.409       .  A
C1508      F2013   1.358       .  S
F1509      C2012   1.358       .  S
O1513     Ni1519   1.912       .  S
O1513      C1534   1.268       .  A
O1514     Ni1537   1.911       .  S
O1514      C1523   1.270       .  A
O1515     Ni1519   1.912       .  S
O1515     Ni1537   1.909       .  S
O1515     Ni1531   1.912       .  S
O1515      H1538   0.967       .  S
C1516      O1533   1.282       .  A
C1516      O1525   1.281       .  A
C1516      C1998   1.468       .  S
O1517     Ni1536   1.952       .  S
O1517      C1523   1.281       .  A
O1518     Ni1536   1.935       .  S
O1518      C1520   1.274       .  A
Ni1519     O1524   1.929       .  S
C1520      O1530   1.277       .  A
C1520      C1971   1.519       .  S
O1521      C1527   1.269       .  A
O1522      C1527   1.276       .  A
C1523      C2008   1.499       .  S
O1524      C1526   1.273       .  A
O1525     Ni1536   1.910       .  S
C1526      O1532   1.282       .  A
C1526      C1978   1.529       .  S
C1527      C1991   1.457       .  S
H1528      O1529   0.966       .  S
O1529     Ni1537   1.879       .  S
O1529     Ni1531   1.907       .  S
O1529     Ni1536   1.891       .  S
O1530     Ni1531   1.951       .  S
Ni1531     O1535   1.943       .  S
Ni1531     O1533   1.907       .  S
O1532     Ni1537   1.978       .  S
C1534      O1535   1.272       .  A
C1534      C1958   1.504       .  S
O1539     Ni1545   1.926       .  S
O1540     Ni1563   1.930       .  S
O1540      C1549   1.277       .  A
O1541     Ni1545   1.912       .  S
O1541     Ni1563   1.910   1_554  S
O1541      H1564   0.967       .  S
C1542      O1559   1.282   1_556  A
C1542      O1551   1.283       .  A
C1542      C1948   1.473       .  S
O1543     Ni1562   1.947       .  S
O1544     Ni1562   1.936       .  S
O1544      C1546   1.273       .  A
Ni1545     O1548   1.919       .  S
Ni1545     O1550   1.939       .  S
C1546      O1556   1.284   1_556  A
C1546      C1918   1.530       .  S
O1547     Ni1563   1.912       .  S
O1547      C1553   1.277   1_556  A
O1548      C1553   1.277       .  A
C1549      C1961   1.499       .  S
O1550      C1552   1.280       .  A
O1551     Ni1562   1.920       .  S
C1552      O1558   1.288   1_554  A
C1552      C1928   1.543       .  S
C1553      C1938   1.475       .  S
H1554      O1555   0.966       .  S
O1555     Ni1557   1.899   1_556  S
O1555     Ni1562   1.891       .  S
O1556     Ni1557   1.968       .  S
Ni1557     O1561   1.921       .  S
Ni1557     O1559   1.918       .  S
O1558     Ni1563   1.991       .  S
C1560      O1561   1.269       .  A
C1560      C1908   1.494       .  S
O1565     Ni1571   1.904       .  S
O1565      C1586   1.265       .  A
O1566     Ni1589   1.917       .  S
O1566      C1575   1.273       .  A
O1567     Ni1571   1.914       .  S
O1567     Ni1589   1.908       .  S
O1567     Ni1583   1.943       .  S
O1567      H1590   0.966       .  S
C1568      O1585   1.287       .  A
C1568      O1577   1.283       .  A
C1568      C1878   1.474       .  S
O1569     Ni1588   1.950       .  S
O1569      C1575   1.281       .  A
O1570     Ni1588   1.923       .  S
O1570      C1572   1.271       .  A
Ni1571     O1574   1.925       .  S
Ni1571     O1576   1.910       .  S
C1572      O1582   1.275       .  A
O1573     Ni1589   1.920       .  S
O1573      C1579   1.277       .  A
O1574      C1579   1.276       .  A
C1575      C1911   1.493       .  S
O1576      C1578   1.271       .  A
O1577     Ni1588   1.921       .  S
C1578      O1584   1.280       .  A
C1578      C1901   1.506       .  S
C1579      C1871   1.486       .  S
H1580      O1581   0.966       .  S
O1581     Ni1589   1.908       .  S
O1581     Ni1583   1.899       .  S
O1581     Ni1588   1.890       .  S
O1582     Ni1583   1.941       .  S
Ni1583     O1587   1.936       .  S
Ni1583     O1585   1.940       .  S
O1584     Ni1589   1.956       .  S
C1586      O1587   1.269       .  A
C1586      C2011   1.486       .  S
O1591     Ni1597   1.919       .  S
O1591      C1612   1.270       .  A
O1592     Ni1615   1.897       .  S
O1592      C1601   1.261       .  A
O1593     Ni1597   1.912       .  S
O1593     Ni1615   1.903       .  S
O1593     Ni1609   1.910       .  S
O1593      H1616   0.967       .  S
C1594      O1611   1.273       .  A
C1594      O1603   1.278       .  A
C1594      C1988   1.466   1_655  S
O1595     Ni1614   1.933       .  S
O1595      C1601   1.269       .  A
O1596     Ni1614   1.900       .  S
O1596      C1598   1.264       .  A
Ni1597     O1600   1.923       .  S
Ni1597     O1602   1.918       .  S
C1598      O1608   1.263       .  A
C1598      C1838   1.457       .  S
O1599     Ni1615   1.881       .  S
O1599      C1605   1.257       .  A
O1600      C1605   1.272       .  A
C1601      C1831   1.464       .  S
O1602      C1604   1.276       .  A
O1603     Ni1614   1.913       .  S
C1604      O1610   1.280       .  A
C1604      C1851   1.494       .  S
C1605      C2001   1.450       .  S
H1606      O1607   0.965       .  S
O1607     Ni1615   1.877       .  S
O1607     Ni1609   1.902       .  S
O1607     Ni1614   1.907       .  S
O1608     Ni1609   1.894       .  S
Ni1609     O1613   1.917       .  S
Ni1609     O1611   1.890       .  S
O1610     Ni1615   1.951       .  S
C1612      O1613   1.269       .  A
C1612      C1858   1.473       .  S
O1617     Ni1623   1.903       .  S
O1617      C1638   1.266       .  A
O1618     Ni1641   1.893       .  S
O1618      C1627   1.260       .  A
O1619     Ni1623   1.917       .  S
O1619     Ni1641   1.913   1_554  S
O1619     Ni1635   1.911       .  S
O1619      H1642   0.957       .  S
C1620      O1637   1.266       .  A
C1620      O1629   1.274   1_554  A
C1620      C1818   1.446       .  S
O1621     Ni1640   1.933       .  S
O1621      C1627   1.269       .  A
O1622     Ni1640   1.895       .  S
O1622      C1624   1.266       .  A
Ni1623     O1626   1.910       .  S
Ni1623     O1628   1.899       .  S
C1624      O1634   1.270   1_556  A
C1624      C1951   1.467       .  S
O1625     Ni1641   1.880       .  S
O1625      C1631   1.254       .  A
O1626      C1631   1.269   1_554  A
C1627      C1828   1.473       .  S
O1628      C1630   1.270       .  A
O1629     Ni1640   1.909       .  S
C1630      O1636   1.277   1_554  A
C1630      C1941   1.486       .  S
C1631      C1808   1.439       .  S
H1632      O1633   0.967       .  S
O1633     Ni1641   1.879       .  S
O1633     Ni1635   1.920   1_556  S
O1633     Ni1640   1.908       .  S
O1634     Ni1635   1.922       .  S
Ni1635     O1639   1.917       .  S
Ni1635     O1637   1.886       .  S
O1636     Ni1641   1.947       .  S
C1638      O1639   1.269       .  A
C1638      C1798   1.470       .  S
O1643     Ni1649   1.939       .  S
O1643      C1664   1.275       .  A
O1644     Ni1667   1.908       .  S
O1644      C1653   1.268       .  A
O1645     Ni1649   1.898       .  S
O1645     Ni1667   1.892       .  S
O1645     Ni1661   1.898       .  S
O1645      H1668   0.967       .  S
C1646      O1663   1.280       .  A
C1646      O1655   1.278       .  A
C1646      C1788   1.464       .  S
O1647     Ni1666   1.928       .  S
O1647      C1653   1.274       .  A
O1648     Ni1666   1.918       .  S
O1648      C1650   1.269       .  A
Ni1649     O1652   1.941       .  S
Ni1649     O1654   1.918       .  S
C1650      O1660   1.267       .  A
C1650      C1881   1.482       .  S
O1651     Ni1667   1.883       .  S
O1651      C1657   1.269       .  A
O1652      C1657   1.281       .  A
C1653      C1801   1.465       .  S
O1654      C1656   1.273       .  A
O1655     Ni1666   1.912       .  S
C1656      O1662   1.275       .  A
C1656      C1868   1.494       .  S
C1657      C1778   1.476       .  S
H1658      O1659   0.965       .  S
O1659     Ni1667   1.893       .  S
O1659     Ni1661   1.886       .  S
O1659     Ni1666   1.888       .  S
O1660     Ni1661   1.917       .  S
Ni1661     O1665   1.907       .  S
Ni1661     O1663   1.910       .  S
O1662     Ni1667   1.945       .  S
C1664      O1665   1.268       .  A
C1664      C1861   1.483       .  S
O1669     Ni1675   1.915       .  S
O1669      C1690   1.268       .  A
O1670     Ni1693   1.928       .  S
O1670      C1679   1.279       .  A
O1671     Ni1675   1.908       .  S
O1671     Ni1693   1.909       .  S
O1671     Ni1687   1.934       .  S
O1671      H1694   0.966       .  S
C1672      O1689   1.283       .  A
C1672      O1681   1.280       .  A
O1673     Ni1692   1.928       .  S
O1673      C1679   1.278       .  A
O1674     Ni1692   1.932       .  S
Ni1675     O1678   1.923       .  S
Ni1675     O1680   1.919       .  S
C1676      C1981   1.525       .  S
O1677     Ni1693   1.927       .  S
O1677      C1683   1.282       .  A
O1678      C1683   1.277       .  A
C1679      C1758   1.491       .  S
O1680      C1682   1.273       .  A
O1681     Ni1692   1.912       .  S
C1682      O1688   1.286       .  A
C1682      C1968   1.526       .  S
C1683      C1848   1.493       .  S
H1684      O1685   0.966       .  S
O1685     Ni1693   1.912       .  S
O1685     Ni1687   1.891       .  S
O1685     Ni1692   1.883       .  S
O1686     Ni1687   1.964       .  S
Ni1687     O1691   1.924       .  S
Ni1687     O1689   1.915       .  S
O1688     Ni1693   1.981       .  S
C1690      O1691   1.269       .  A
C1690      C1768   1.494       .  S
O1695     Ni1701   1.926       .  S
O1696     Ni1719   1.902       .  S
O1696      C1705   1.267       .  A
O1697     Ni1701   1.910       .  S
O1697     Ni1719   1.907   1_556  S
O1697      H1720   0.966       .  S
C1698      O1715   1.273   1_554  A
C1698      O1707   1.284       .  A
C1698      C1811   1.452   1_554  S
O1699     Ni1718   1.965       .  S
O1700     Ni1718   1.938       .  S
O1700      C1702   1.275       .  A
Ni1701     O1704   1.927       .  S
Ni1701     O1706   1.937       .  S
C1702      O1712   1.285   1_554  A
C1702      C1931   1.538       .  S
O1703     Ni1719   1.871       .  S
O1703      C1709   1.265       .  A
O1704      C1709   1.280   1_556  A
C1705      C1751   1.497       .  S
O1706      C1708   1.273       .  A
O1707     Ni1718   1.921       .  S
C1708      O1714   1.283   1_556  A
C1708      C1921   1.536       .  S
C1709      C1821   1.447       .  S
O1711     Ni1713   1.902   1_554  S
O1711     Ni1718   1.883       .  S
O1712     Ni1713   1.976       .  S
Ni1713     O1717   1.923       .  S
Ni1713     O1715   1.881       .  S
O1714     Ni1719   1.982       .  S
C1716      O1717   1.271       .  A
C1716      C1761   1.491       .  S
O1721     Ni1727   1.891       .  S
O1721      C1742   1.263       .  A
O1722     Ni1745   1.918       .  S
O1722      C1731   1.272       .  A
O1723     Ni1727   1.906       .  S
O1723     Ni1745   1.896       .  S
O1723     Ni1739   1.926       .  S
O1723      H1746   0.967       .  S
C1724      O1741   1.288       .  A
C1724      O1733   1.279       .  A
C1724      C1781   1.466       .  S
O1725     Ni1744   1.938       .  S
O1725      C1731   1.276       .  A
O1726     Ni1744   1.928       .  S
O1726      C1728   1.271       .  A
Ni1727     O1732   1.907       .  S
C1728      O1738   1.267       .  A
C1728      C1898   1.499       .  S
O1729      C1735   1.270       .  A
O1730      C1735   1.276   1_455  A
C1731      C1771   1.480       .  S
O1732      C1734   1.269       .  A
O1733     Ni1744   1.905       .  S
C1734      O1740   1.282       .  A
C1734      C1891   1.512       .  S
C1735      C1791   1.472       .  S
H1736      O1737   0.966       .  S
O1737     Ni1745   1.890       .  S
O1737     Ni1739   1.899       .  S
O1737     Ni1744   1.895       .  S
O1738     Ni1739   1.922       .  S
Ni1739     O1743   1.943       .  S
Ni1739     O1741   1.929       .  S
O1740     Ni1745   1.968       .  S
C1742      O1743   1.269       .  A
C1742      C1748   1.493       .  S
C1747      C1748   1.413       .  A
C1747      C1752   1.403       .  A
C1747      F1754   1.355       .  S
C1748      C1749   1.404       .  A
C1749      C1750   1.409       .  A
C1749      F1756   1.357       .  S
C1750      C1751   1.415       .  A
C1750      F1755   1.357       .  S
C1751      C1752   1.405       .  A
C1757      C1758   1.409       .  A
C1757      C1762   1.410       .  A
C1757      F1764   1.357       .  S
C1758      C1759   1.409       .  A
C1760      F1765   1.358       .  S
C1761      C1762   1.411       .  A
C1762      F1763   1.357       .  S
C1767      C1772   1.405       .  A
C1767      F1774   1.357       .  S
C1768      C1769   1.413       .  A
C1769      C1770   1.401       .  A
C1769      F1776   1.358       .  S
C1770      F1775   1.358       .  S
C1771      C1772   1.405       .  A
C1772      F1773   1.358       .  S
C1777      C1778   1.411       .  A
C1777      C1782   1.390       .  A
C1777      F1784   1.358       .  S
C1778      C1779   1.409       .  A
C1779      C1780   1.393       .  A
C1779      F1786   1.359       .  S
C1780      C1781   1.407       .  A
C1780      F1785   1.359       .  S
C1781      C1782   1.401       .  A
C1782      F1783   1.358       .  S
C1787      C1792   1.386       .  A
C1788      C1789   1.405   1_565  A
C1789      F1796   1.358   1_545  S
C1790      C1791   1.410       .  A
C1791      C1792   1.409       .  A
C1792      F1793   1.358       .  S
C1797      C1798   1.408       .  A
C1797      C1802   1.398       .  A
C1797      F1804   1.359       .  S
C1798      C1799   1.405       .  A
C1799      C1800   1.399       .  A
C1799      F1806   1.358       .  S
C1800      C1801   1.403       .  A
C1800      F1805   1.357       .  S
C1801      C1802   1.402       .  A
C1802      F1803   1.358       .  S
C1807      C1808   1.398   1_554  A
C1807      C1812   1.387       .  A
C1807      F1814   1.358       .  S
C1808      C1809   1.401       .  A
C1809      C1810   1.386       .  A
C1809      F1816   1.358       .  S
C1810      C1811   1.405       .  A
C1810      F1815   1.359       .  S
C1811      C1812   1.405   1_556  A
C1812      F1813   1.358       .  S
C1817      C1818   1.402   1_556  A
C1817      C1822   1.385       .  A
C1817      F1824   1.358       .  S
C1818      C1819   1.403       .  A
C1819      C1820   1.390       .  A
C1819      F1826   1.359       .  S
C1820      C1821   1.404       .  A
C1820      F1825   1.359       .  S
C1821      C1822   1.399   1_554  A
C1822      F1823   1.358       .  S
C1827      C1828   1.407       .  A
C1827      C1832   1.399       .  A
C1827      F1834   1.358       .  S
C1828      C1829   1.407       .  A
C1829      C1830   1.397       .  A
C1829      F1836   1.358       .  S
C1830      C1831   1.403       .  A
C1830      F1835   1.359       .  S
C1831      C1832   1.401       .  A
C1832      F1833   1.358       .  S
C1837      C1838   1.401       .  A
C1837      C1842   1.395       .  A
C1837      F1844   1.358       .  S
C1838      C1839   1.404       .  A
C1839      C1840   1.387       .  A
C1839      F1846   1.359       .  S
C1840      C1841   1.404       .  A
C1840      F1845   1.358   1_565  S
C1841      C1842   1.408       .  A
C1847      C1848   1.408       .  A
C1847      C1852   1.402       .  A
C1847      F1854   1.358       .  S
C1848      C1849   1.413       .  A
C1849      C1850   1.401       .  A
C1849      F1856   1.358       .  S
C1850      C1851   1.408       .  A
C1850      F1855   1.358       .  S
C1851      C1852   1.413       .  A
C1852      F1853   1.358       .  S
C1857      C1858   1.407       .  A
C1857      C1862   1.402       .  A
C1857      F1864   1.359       .  S
C1858      C1859   1.402       .  A
C1859      C1860   1.402       .  A
C1859      F1866   1.357       .  S
C1860      C1861   1.411       .  A
C1860      F1865   1.357       .  S
C1861      C1862   1.406       .  A
C1862      F1863   1.358       .  S
C1867      C1868   1.414       .  A
C1867      C1872   1.403       .  A
C1867      F1874   1.358       .  S
C1868      C1869   1.410       .  A
C1869      C1870   1.399       .  A
C1869      F1876   1.357       .  S
C1870      C1871   1.407       .  A
C1870      F1875   1.358       .  S
C1871      C1872   1.408       .  A
C1872      F1873   1.358       .  S
C1877      C1882   1.394       .  A
C1877      F1884   1.359   1_655  S
C1879      C1880   1.404       .  A
C1880      C1881   1.410       .  A
C1880      F1885   1.358       .  S
C1881      C1882   1.409       .  A
C1882      F1883   1.358       .  S
C1887      C1888   1.415       .  A
C1887      C1892   1.413       .  A
C1887      F1894   1.357       .  S
C1888      C1889   1.409       .  A
C1889      C1890   1.403       .  A
C1890      C1891   1.417       .  A
C1890      F1895   1.358       .  S
C1891      C1892   1.413       .  A
C1892      F1893   1.357       .  S
C1897      C1898   1.414       .  A
C1897      C1902   1.407       .  A
C1897      F1904   1.358       .  S
C1898      C1899   1.406       .  A
C1899      C1900   1.404       .  A
C1899      F1906   1.358       .  S
C1900      C1901   1.417       .  A
C1900      F1905   1.357       .  S
C1901      C1902   1.411       .  A
C1902      F1903   1.358       .  S
C1907      C1908   1.409       .  A
C1907      C1912   1.403       .  A
C1908      C1909   1.411       .  A
C1909      C1910   1.410       .  A
C1909      F1916   1.358       .  S
C1910      C1911   1.409       .  A
C1910      F1915   1.358       .  S
C1911      C1912   1.408       .  A
C1912      F1913   1.358   1_565  S
C1917      C1918   1.417   1_554  A
C1917      C1922   1.424       .  A
C1917      F1924   1.357       .  S
C1918      C1919   1.415       .  A
C1919      C1920   1.419       .  A
C1919      F1926   1.358       .  S
C1920      C1921   1.418       .  A
C1920      F1925   1.358       .  S
C1921      C1922   1.418   1_556  A
C1922      F1923   1.357       .  S
C1927      C1928   1.421   1_556  A
C1927      C1932   1.428       .  A
C1927      F1934   1.357       .  S
C1928      C1929   1.419       .  A
C1929      C1930   1.417       .  A
C1929      F1936   1.357       .  S
C1930      C1931   1.416       .  A
C1930      F1935   1.358       .  S
C1931      C1932   1.419   1_554  A
C1932      F1933   1.357       .  S
C1937      C1938   1.406       .  A
C1937      C1942   1.394       .  A
C1937      F1944   1.359       .  S
C1938      C1939   1.406   1_554  A
C1939      C1940   1.399       .  A
C1939      F1946   1.358       .  S
C1940      C1941   1.411   1_556  A
C1940      F1945   1.358       .  S
C1941      C1942   1.411       .  A
C1942      F1943   1.358       .  S
C1947      C1948   1.409   1_554  A
C1947      C1952   1.393       .  A
C1947      F1954   1.358       .  S
C1948      C1949   1.408       .  A
C1949      C1950   1.393       .  A
C1949      F1956   1.358       .  S
C1950      C1951   1.405       .  A
C1950      F1955   1.359       .  S
C1951      C1952   1.404   1_556  A
C1952      F1953   1.358       .  S
C1957      C1958   1.413       .  A
C1957      C1962   1.415       .  A
C1957      F1964   1.357       .  S
C1958      C1959   1.413       .  A
C1959      C1960   1.402       .  A
C1959      F1966   1.358       .  S
C1960      C1961   1.407       .  A
C1960      F1965   1.358       .  S
C1961      C1962   1.411       .  A
C1962      F1963   1.357       .  S
C1967      C1968   1.415       .  A
C1967      C1972   1.419       .  A
C1967      F1974   1.357       .  S
C1968      C1969   1.420       .  A
C1969      C1970   1.411       .  A
C1969      F1976   1.358       .  S
C1970      C1971   1.410       .  A
C1970      F1975   1.358       .  S
C1971      C1972   1.416       .  A
C1972      F1973   1.357       .  S
C1977      C1978   1.417       .  A
C1977      C1982   1.421       .  A
C1977      F1984   1.357       .  S
C1978      C1979   1.417       .  A
C1979      C1980   1.414       .  A
C1979      F1986   1.358       .  S
C1980      C1981   1.414       .  A
C1980      F1985   1.357       .  S
C1981      C1982   1.416       .  A
C1987      C1992   1.387       .  A
C1989      C1990   1.388       .  A
C1990      C1991   1.403       .  A
C1990      F1995   1.359       .  S
C1991      C1992   1.403       .  A
C1997      C1998   1.412       .  A
C1997      C2002   1.387       .  A
C1997      F2004   1.359       .  S
C1998      C1999   1.407       .  A
C1999      C2000   1.389       .  A
C1999      F2006   1.358       .  S
C2000      C2001   1.403       .  A
C2000      F2005   1.357       .  S
C2001      C2002   1.397       .  A
C2002      F2003   1.359       .  S
C2007      C2008   1.416       .  A
C2007      F2014   1.358       .  S
C2009      C2010   1.401       .  A
C2009      F2016   1.357   1_565  S
C2010      C2011   1.407       .  A
C2010      F2015   1.358       .  S
C2011      C2012   1.404       .  A
