geometry optimzed in LAMMPS
_audit_creation_date              2020-12-01 
_audit_creation_method            'lammps2cif' 
_symmetry_space_group_name_H-M    'P1' 
_symmetry_Int_Tables_number       1 
_symmetry_cell_setting            triclinic 
loop_ 
_symmetry_equiv_pos_as_xyz 
  x,y,z 
_cell_length_a                    35.92120898 
_cell_length_b                    36.780420464747664 
_cell_length_c                    72.57025389975864 
_cell_angle_alpha                 90.48018070973762 
_cell_angle_beta                  89.75852014702072 
_cell_angle_gamma                 89.96064882368164 
loop_ 
_atom_site_label 
_atom_site_type_symbol 
_atom_site_fract_x 
_atom_site_fract_y 
_atom_site_fract_z 
_atom_site_charge 
C1          C  0.39424649  0.46412539  0.29273205     0.03200
C2          C  0.40826871  0.42784783  0.29421547    -0.13000
C3          C  0.40870393  0.40426703  0.27866665     0.00700
C4          C  0.39671459  0.41933372  0.26192601    -0.11500
C5          C  0.37585780  0.45129467  0.26122486     0.03200
C6          C  0.37549953  0.47449455  0.27652972    -0.10900
H7          H  0.41961116  0.41857682  0.30714728     0.08800
H8          H  0.39827840  0.40426327  0.24919406     0.06300
H9          H  0.36130397  0.50042446  0.27574573     0.06100
C10         C  0.39623216  0.30457484  0.29250033     0.03200
C11         C  0.40683026  0.34170408  0.29491569    -0.13000
C12         C  0.41497336  0.36321419  0.27927656     0.00700
C13         C  0.41855306  0.34391148  0.26245509    -0.11500
C14         C  0.39538762  0.31372654  0.25942281     0.03200
C15         C  0.38617312  0.29250473  0.27468576    -0.10900
H16         H  0.40815825  0.35346714  0.30861433     0.08800
H17         H  0.42969194  0.35720353  0.25040675     0.06300
H18         H  0.37115840  0.26724189  0.27274218     0.06100
C19         C  0.19138740  0.24896739  0.46120557     0.03200
C20         C  0.22772049  0.23401212  0.45933623    -0.13000
C21         C  0.25049573  0.22915925  0.47488945     0.00700
C22         C  0.23462904  0.23745054  0.49217740    -0.11500
C23         C  0.20240277  0.25856859  0.49395879     0.03200
C24         C  0.17984283  0.26338720  0.47846026    -0.10900
H25         H  0.23787693  0.22563900  0.44589276     0.08800
H26         H  0.24985112  0.23293292  0.50469898     0.06300
H27         H  0.15383692  0.27811103  0.47978295     0.06100
C28         C  0.35152570  0.24631055  0.46195711     0.03200
C29         C  0.31383897  0.23639021  0.45900413    -0.13000
C30         C  0.29217379  0.22297632  0.47376587     0.00700
C31         C  0.31166406  0.21410723  0.48994517    -0.11500
C32         C  0.34315001  0.23480950  0.49460168     0.03200
C33         C  0.36458296  0.24900886  0.48020472    -0.10900
H34         H  0.30163303  0.23990094  0.44553049     0.08800
H35         H  0.29736646  0.20036859  0.50103350     0.06300
H36         H  0.39064000  0.26257726  0.48321764     0.06100
C37         C  0.34889081  0.02068407  0.46215396     0.03200
C38         C  0.31214133  0.03450291  0.46025012    -0.13000
C39         C  0.28905237  0.03948245  0.47581843     0.00700
C40         C  0.30507419  0.03250089  0.49309650    -0.11500
C41         C  0.33809010  0.01269252  0.49489434     0.03200
C42         C  0.36069865  0.00743341  0.47938458    -0.10900
H43         H  0.30198918  0.04197862  0.44678260     0.08800
H44         H  0.28978991  0.03726779  0.50566659     0.06300
H45         H  0.38721324  0.99370094  0.48075293     0.06100
C46         C  0.18846852  0.02089942  0.46253148     0.03200
C47         C  0.17569770  0.01627793  0.48087141    -0.13000
C48         C  0.19674848  0.03055470  0.49556909     0.00700
C49         C  0.22730760  0.05256501  0.49109905    -0.11500
C50         C  0.24722951  0.04474308  0.47477507     0.03200
C51         C  0.22600667  0.03166445  0.45976124    -0.10900
H52         H  0.15006158  0.00181355  0.48364784     0.08800
H53         H  0.24081837  0.06683116  0.50231118     0.06300
H54         H  0.23838735  0.02930428  0.44618806     0.06100
In55       In  0.11602210  0.22323600  0.42029562     1.36900
C56         C  0.04393945  0.23610789  0.42630699     0.77600
O57         O  0.11422377  0.25729843  0.39433850    -0.60800
O58         O  0.14778378  0.20986510  0.39447958    -0.51700
C59         C  0.16486427  0.24607007  0.44565312     0.70300
O60         O  0.13036757  0.25158265  0.44730426    -0.46600
C61         C  0.11400687  0.15145126  0.42101762     0.75000
O62         O  0.06416659  0.25871809  0.41785685    -0.58400
O63         O  0.09750424  0.16959043  0.40891058    -0.48500
O64         O  0.06133051  0.20977598  0.43313807    -0.54900
C65         C  0.13385813  0.23502785  0.38515461     0.85200
O66         O  0.17433260  0.23390855  0.43009167    -0.56800
O67         O  0.13086082  0.16993886  0.43302496    -0.60100
In68       In  0.12338541  0.21858490  0.32957687     1.36900
C69         C  0.13237199  0.14711322  0.32380207     0.77600
O70         O  0.15512091  0.21152799  0.35602898    -0.60800
O71         O  0.11286109  0.25196019  0.35523902    -0.51700
C72         C  0.15276185  0.26464120  0.30499279     0.70300
O73         O  0.14520106  0.23205084  0.30113063    -0.46600
C74         C  0.04937139  0.22352050  0.32888089     0.75000
O75         O  0.15748286  0.16597950  0.33143727    -0.58400
O76         O  0.06690099  0.20690935  0.34117262    -0.48500
O77         O  0.10548572  0.16528211  0.31774879    -0.54900
C78         C  0.13536665  0.23417570  0.36491625     0.85200
O79         O  0.15095187  0.27189335  0.32195241    -0.56800
O80         O  0.06956338  0.23808527  0.31678794    -0.60100
In81       In  0.11376561  0.04004567  0.42071639     1.36900
C82         C  0.04110493  0.03013898  0.42679540     0.77600
O83         O  0.12995376  0.09371282  0.43315465    -0.60800
O84         O  0.09752736  0.09364576  0.40876496    -0.51700
C85         C  0.16218361  0.01948566  0.44674348     0.70300
O86         O  0.12747608  0.01605736  0.44869362    -0.46600
C87         C  0.12959488  0.02451658  0.38546961     0.75000
O88         O  0.06081188  0.00545984  0.41937909    -0.58400
O89         O  0.14507791  0.04988108  0.39428005    -0.48500
O90         O  0.05920142  0.05708562  0.43263108    -0.54900
C91         C  0.11380728  0.11201004  0.42100126     0.85200
O92         O  0.17193398  0.02722955  0.43056693    -0.56800
O93         O  0.10962097  0.00390906  0.39524936    -0.60100
In94       In  0.11637350  0.03675932  0.32964885     1.36900
C95         C  0.13083436  0.10705460  0.32376228     0.77600
O96         O  0.06134310  0.02432170  0.31616995    -0.60800
O97         O  0.06147430  0.05157795  0.34204526    -0.51700
C98         C  0.14203557  0.98689127  0.30531087     0.70300
O99         O  0.14075512  0.02031327  0.30175695    -0.46600
C100        C  0.12982153  0.02341908  0.36515115     0.75000
O101        O  0.15436327  0.08664678  0.33145181    -0.58400
O102        O  0.10527789  0.00664422  0.35610322    -0.48500
O103        O  0.10269696  0.09072419  0.31760641    -0.54900
C104        C  0.04263189  0.03863106  0.32901515     0.85200
O105        O  0.13378044  0.97969700  0.32174980    -0.56800
O106        O  0.15068556  0.04350250  0.35554261    -0.60100
In107      In  0.42346979  0.22758358  0.33161124     1.36900
C108        C  0.41077662  0.15587430  0.32617315     0.77600
O109        O  0.47839227  0.23844290  0.31787364    -0.60800
O110        O  0.47841861  0.21486434  0.34448743    -0.51700
C111        C  0.39948579  0.27772216  0.30758576     0.70300
O112        O  0.39426814  0.24405932  0.30526286    -0.46600
C113        C  0.40928234  0.24403652  0.36650312     0.75000
O114        O  0.38726335  0.17632963  0.33414362    -0.58400
O115        O  0.43403387  0.25993732  0.35732126    -0.48500
O116        O  0.43821359  0.17266758  0.31951578    -0.54900
C117        C  0.49719604  0.22678299  0.33118803     0.85200
O118        O  0.41237226  0.28577566  0.32313572    -0.56800
O119        O  0.38825003  0.22338314  0.35723875    -0.60100
In120      In  0.42830955  0.22921338  0.42109854     1.36900
C121        C  0.50109664  0.24169844  0.42585552     0.77600
O122        O  0.41747449  0.17636569  0.43517639    -0.60800
O123        O  0.44103561  0.17504373  0.40826442    -0.51700
C124        C  0.37809979  0.24874489  0.44639491     0.70300
O125        O  0.41244206  0.25446566  0.44854206    -0.46600
C126        C  0.41022453  0.24379086  0.38662832     0.75000
O127        O  0.48013992  0.26540051  0.41877915    -0.58400
O128        O  0.39581906  0.21818061  0.39551633    -0.48500
O129        O  0.48427586  0.21418427  0.43179036    -0.54900
C130        C  0.42905444  0.15738975  0.42183872     0.85200
O131        O  0.36935752  0.23947178  0.43029547    -0.56800
O132        O  0.43050213  0.26499369  0.39600930    -0.60100
In133      In  0.42603710  0.04620876  0.42207092     1.36900
C134        C  0.49886158  0.03604631  0.42794938     0.77600
O135        O  0.42826698  0.00991896  0.39681011    -0.60800
O136        O  0.39191987  0.05548180  0.39684206    -0.51700
C137        C  0.37580469  0.02414470  0.44680411     0.70300
O138        O  0.40974633  0.01564736  0.44795157    -0.46600
C139        C  0.42838556  0.11794372  0.42204006     0.75000
O140        O  0.47958557  0.01267285  0.41937196    -0.58400
O141        O  0.43958851  0.09900769  0.40859222    -0.48500
O142        O  0.48031934  0.06184471  0.43482510    -0.54900
C143        C  0.40655820  0.03000798  0.38773889     0.85200
O144        O  0.36742472  0.03966291  0.43207311    -0.56800
O145        O  0.41644074  0.10026364  0.43562601    -0.60100
In146      In  0.41780040  0.04347047  0.33251020     1.36900
C147        C  0.40956588  0.11545171  0.32635556     0.77600
O148        O  0.38362948  0.04994467  0.35855201    -0.60800
O149        O  0.42743718  0.01127378  0.35814190    -0.51700
C150        C  0.39277622  0.99205344  0.30886197     0.70300
O151        O  0.38236479  0.02483160  0.30802351    -0.46600
C152        C  0.49104571  0.04212145  0.33254924     0.75000
O153        O  0.38457273  0.09690548  0.33424452    -0.58400
O154        O  0.47230353  0.05292576  0.34620912    -0.48500
O155        O  0.43618890  0.09667547  0.32010767    -0.54900
C156        C  0.40415130  0.02875538  0.36762483     0.85200
O157        O  0.41237661  0.98544707  0.32267382    -0.56800
O158        O  0.47244280  0.03348951  0.31847910    -0.60100
C159        C  0.12828708  0.45883029  0.29539405     0.03200
C160        C  0.13514982  0.42170782  0.29969123    -0.13000
C161        C  0.14542742  0.39749627  0.28545325     0.00700
C162        C  0.15130073  0.41275350  0.26796323    -0.11500
C163        C  0.13215720  0.44422835  0.26269375     0.03200
C164        C  0.12292750  0.46879096  0.27674189    -0.10900
H165        H  0.13206941  0.41195646  0.31364996     0.08800
H166        H  0.16604700  0.39734447  0.25780356     0.06300
H167        H  0.11051217  0.49469668  0.27329560     0.06100
C168        C  0.15533369  0.29325520  0.29076097     0.03200
C169        C  0.14346909  0.28475760  0.27246283    -0.13000
C170        C  0.12427231  0.31140710  0.26252390     0.00700
C171        C  0.11566663  0.34347930  0.27204767    -0.11500
C172        C  0.13913523  0.35688205  0.28570944     0.03200
C173        C  0.15797296  0.33065921  0.29619582    -0.10900
H174        H  0.14620524  0.25754524  0.26681263     0.08800
H175        H  0.09518194  0.36099191  0.26664605     0.06300
H176        H  0.17181288  0.33862951  0.30881840     0.06100
C177        C  0.35193237  0.46277015  0.21194014     0.03200
C178        C  0.34024043  0.42596144  0.20967506    -0.13000
C179        C  0.33081514  0.40513922  0.22536082     0.00700
C180        C  0.32719466  0.42477712  0.24206454    -0.11500
C181        C  0.35072720  0.45466345  0.24509775     0.03200
C182        C  0.36135293  0.47512185  0.22978129    -0.10900
H183        H  0.33918774  0.41383179  0.19604884     0.08800
H184        H  0.31565227  0.41168022  0.25409233     0.06300
H185        H  0.37685555  0.50010265  0.23172851     0.06100
C186        C  0.34778096  0.30338270  0.21262648     0.03200
C187        C  0.36740693  0.29308925  0.22862889    -0.13000
C188        C  0.36934047  0.31713570  0.24360010     0.00700
C189        C  0.34931780  0.34958735  0.24289556    -0.11500
C190        C  0.33626617  0.36411215  0.22625672     0.03200
C191        C  0.33482321  0.33996653  0.21098640    -0.10900
H192        H  0.38081165  0.26676617  0.22943549     0.08800
H193        H  0.34893062  0.36530043  0.25544442     0.06300
H194        H  0.32285062  0.34910619  0.19816867     0.06100
C195        C  0.11433055  0.46124673  0.21140555     0.03200
C196        C  0.12284051  0.46995808  0.23006442    -0.13000
C197        C  0.11477210  0.44474496  0.24384621     0.00700
C198        C  0.09368192  0.41456730  0.23854908    -0.11500
C199        C  0.09730110  0.39983957  0.22072828     0.03200
C200        C  0.10597802  0.42445295  0.20661570    -0.10900
H201        H  0.13628692  0.49537807  0.23365993     0.08800
H202        H  0.07992901  0.39915771  0.24883012     0.06300
H203        H  0.10699751  0.41521647  0.19241863     0.06100
C204        C  0.08751637  0.29600085  0.21316298     0.03200
C205        C  0.08478682  0.33363321  0.20859196    -0.13000
C206        C  0.10307652  0.35918488  0.21984789     0.00700
C207        C  0.12600232  0.34498670  0.23344537    -0.11500
C208        C  0.11752329  0.31223772  0.24205513     0.03200
C209        C  0.09874629  0.28628799  0.23131736    -0.10900
H210        H  0.07156842  0.34226288  0.19598076     0.08800
H211        H  0.14592321  0.36235673  0.23954844     0.06300
H212        H  0.09619342  0.25865502  0.23619207     0.06100
C213        C  0.39402795  0.25195190  0.04468635     0.03200
C214        C  0.43066699  0.23762057  0.04661730    -0.13000
C215        C  0.45366957  0.23200852  0.03099043     0.00700
C216        C  0.43770461  0.23924962  0.01372928    -0.11500
C217        C  0.40531058  0.25991644  0.01193211     0.03200
C218        C  0.38263793  0.26544702  0.02740807    -0.10900
H219        H  0.44065507  0.22998209  0.06008997     0.08800
H220        H  0.45276160  0.23415500  0.00112692     0.06300
H221        H  0.35642307  0.27970261  0.02599765     0.06100
C222        C  0.05484601  0.24218944  0.04151624     0.03200
C223        C  0.06770491  0.24609096  0.02320795    -0.13000
C224        C  0.04580607  0.23305984  0.00860804     0.00700
C225        C  0.01424710  0.21239869  0.01306122    -0.11500
C226        C  0.99499042  0.22082908  0.02950111     0.03200
C227        C  0.01700266  0.23288154  0.04444012    -0.10900
H228        H  0.09388304  0.25956237  0.02036469     0.08800
H229        H  0.99986684  0.19910040  0.00181711     0.06300
H230        H  0.00499050  0.23575823  0.05806637     0.06100
C231        C  0.39662376  0.01648666  0.04449700     0.03200
C232        C  0.43289178  0.03174870  0.04625284    -0.13000
C233        C  0.45547119  0.03709540  0.03050849     0.00700
C234        C  0.43945032  0.02873632  0.01335069    -0.11500
C235        C  0.40761795  0.00720702  0.01178248     0.03200
C236        C  0.38537268  0.00184247  0.02734539    -0.10900
H237        H  0.44291636  0.04023808  0.05965686     0.08800
H238        H  0.45413398  0.03379914  0.00067792     0.06300
H239        H  0.35949663  0.98694632  0.02607403     0.06100
C240        C  0.05639871  0.01999269  0.04238162     0.03200
C241        C  0.06941588  0.01626783  0.02403735    -0.13000
C242        C  0.04781667  0.02976034  0.00950880     0.00700
C243        C  0.01631679  0.05055177  0.01413005    -0.11500
C244        C  0.99692451  0.04215312  0.03045959     0.03200
C245        C  0.01863083  0.02966289  0.04530790    -0.10900
H246        H  0.09553884  0.00264541  0.02110166     0.08800
H247        H  0.00195842  0.06392266  0.00299870     0.06300
H248        H  0.00639398  0.02668498  0.05885762     0.06100
In249      In  0.12295929  0.22323062  0.17370160     1.36900
C250        C  0.11460803  0.15224161  0.17991007     0.77600
O251        O  0.09026133  0.21550169  0.14751781    -0.60800
O252        O  0.13320230  0.25520773  0.14785866    -0.51700
C253        C  0.09193772  0.26864939  0.19830471     0.70300
O254        O  0.09700106  0.23543855  0.20146328    -0.46600
C255        C  0.19695499  0.22660040  0.17491798     0.75000
O256        O  0.08963100  0.17044364  0.17191203    -0.58400
O257        O  0.17932895  0.21037321  0.16239549    -0.48500
O258        O  0.14130483  0.17085724  0.18595987    -0.54900
C259        C  0.11007143  0.23742983  0.13841561     0.85200
O260        O  0.09785989  0.27740229  0.18183118    -0.56800
O261        O  0.17684319  0.24230950  0.18683473    -0.60100
In262      In  0.12879050  0.22253436  0.08329273     1.36900
C263        C  0.20170759  0.23354326  0.07808833     0.77600
O264        O  0.13165851  0.25821624  0.10885962    -0.60800
O265        O  0.09581305  0.21233275  0.10900495    -0.51700
C266        C  0.08127471  0.24323140  0.05713148     0.70300
O267        O  0.11604450  0.24409469  0.05489314    -0.46600
C268        C  0.12752795  0.15065751  0.08348130     0.75000
O269        O  0.18095163  0.25839353  0.08457776    -0.58400
O270        O  0.14122464  0.16926659  0.09637857    -0.48500
O271        O  0.18467745  0.20535473  0.07302363    -0.54900
C272        C  0.11104475  0.23732648  0.11817452     0.85200
O273        O  0.07131097  0.23782692  0.07352068    -0.56800
O274        O  0.11468057  0.16866691  0.07027805    -0.60100
In275      In  0.13031418  0.03933710  0.08436651     1.36900
C276        C  0.20363145  0.03093323  0.07906260     0.77600
O277        O  0.11689121  0.09203344  0.07039023    -0.60800
O278        O  0.13905962  0.09378789  0.09746172    -0.51700
C279        C  0.08263998  0.01852246  0.05809586     0.70300
O280        O  0.11742819  0.01678745  0.05596531    -0.46600
C281        C  0.11504883  0.02369646  0.11938982     0.75000
O282        O  0.18329974  0.00406172  0.08321118    -0.58400
O283        O  0.09716731  0.04697560  0.11041821    -0.48500
O284        O  0.18608527  0.05994793  0.07641303    -0.54900
C285        C  0.12744602  0.11123480  0.08380746     0.85200
O286        O  0.07262006  0.02457211  0.07448273    -0.56800
O287        O  0.13704639  0.00443785  0.10978621    -0.60100
In288      In  0.12880677  0.04129917  0.17480516     1.36900
C289        C  0.11609107  0.11227075  0.18031340     0.77600
O290        O  0.18298627  0.01901229  0.18496006    -0.60800
O291        O  0.18379341  0.05748408  0.16324967    -0.51700
C292        C  0.10788996  0.99534538  0.20115357     0.70300
O293        O  0.12176503  0.02603475  0.20455132    -0.46600
C294        C  0.11518670  0.02419330  0.13967364     0.75000
O295        O  0.09082614  0.09137489  0.17441304    -0.58400
O296        O  0.14041580  0.00895656  0.14881631    -0.48500
O297        O  0.14540545  0.09629590  0.18502242    -0.54900
C298        C  0.20209402  0.03788319  0.17408537     0.85200
O299        O  0.09856796  0.99081955  0.18453902    -0.56800
O300        O  0.09391108  0.04457294  0.14906595    -0.60100
In301      In  0.31556318  0.22503976  0.08415175     1.36900
C302        C  0.24273474  0.23418246  0.07815704     0.77600
O303        O  0.32518635  0.17168438  0.06939422    -0.60800
O304        O  0.30760115  0.17111692  0.09736407    -0.51700
C305        C  0.36652594  0.24866256  0.05990841     0.70300
O306        O  0.33212551  0.25405782  0.05786808    -0.46600
C307        C  0.32812889  0.24010372  0.11950708     0.75000
O308        O  0.26239182  0.25956312  0.08483902    -0.58400
O309        O  0.34722228  0.21744221  0.11047130    -0.48500
O310        O  0.26089210  0.20660258  0.07306881    -0.54900
C311        C  0.31693615  0.15305457  0.08331086     0.85200
O312        O  0.37485373  0.23610984  0.07539608    -0.56800
O313        O  0.30605390  0.25881092  0.10993394    -0.60100
In314      In  0.31150431  0.22481082  0.17486938     1.36900
C315        C  0.32323313  0.15291139  0.18051277     0.77600
O316        O  0.25651050  0.23843830  0.18864957    -0.60800
O317        O  0.25633718  0.21265104  0.16235738    -0.51700
C318        C  0.33872622  0.27546172  0.19839524     0.70300
O319        O  0.34315454  0.24176079  0.20070920    -0.46600
C320        C  0.32688860  0.23974950  0.13972974     0.75000
O321        O  0.34731955  0.17295740  0.17292392    -0.58400
O322        O  0.30117122  0.25515044  0.14860736    -0.48500
O323        O  0.29539761  0.17014969  0.18662896    -0.54900
C324        C  0.23757584  0.22617232  0.17538833     0.85200
O325        O  0.32327617  0.28307064  0.18343892    -0.56800
O326        O  0.34764214  0.21972099  0.14931619    -0.60100
In327      In  0.31576046  0.04031492  0.17429186     1.36900
C328        C  0.32446672  0.11243285  0.18047949     0.77600
O329        O  0.35267296  0.04380127  0.14911728    -0.60800
O330        O  0.30438443  0.01055764  0.14789778    -0.51700
C331        C  0.34049291  0.99128386  0.19862437     0.70300
O332        O  0.34099902  0.02511128  0.20169467    -0.46600
C333        C  0.24239916  0.03798991  0.17421362     0.75000
O334        O  0.34931745  0.09346928  0.17253041    -0.58400
O335        O  0.26090979  0.05565738  0.16260814    -0.48500
O336        O  0.29795101  0.09397041  0.18687702    -0.54900
C337        C  0.33084986  0.02500319  0.13928249     0.85200
O338        O  0.33233754  0.98299460  0.18230888    -0.56800
O339        O  0.26129699  0.02137941  0.18605495    -0.60100
In340      In  0.31771055  0.04164959  0.08422205     1.36900
C341        C  0.24466947  0.03133115  0.07891082     0.77600
O342        O  0.30951916  0.00679892  0.10937548    -0.60800
O343        O  0.34990144  0.04882049  0.11042051    -0.51700
C344        C  0.36920811  0.01974485  0.05973882     0.70300
O345        O  0.33505249  0.01273792  0.05785765    -0.46600
C346        C  0.31754857  0.11356044  0.08336316     0.75000
O347        O  0.26550877  0.00531304  0.08366837    -0.58400
O348        O  0.31061582  0.09584573  0.09773269    -0.48500
O349        O  0.26166636  0.06034793  0.07546374    -0.54900
C350        C  0.33159719  0.02540231  0.11911524     0.85200
O351        O  0.37722302  0.03355335  0.07509258    -0.56800
O352        O  0.32431721  0.09457702  0.06920087    -0.60100
C353        C  0.39358532  0.27132557  0.96146317     0.03200
C354        C  0.38067851  0.26696614  0.97973462    -0.13000
C355        C  0.40210538  0.28039172  0.99440585     0.00700
C356        C  0.43340667  0.30152935  0.99005872    -0.11500
C357        C  0.45297694  0.29354105  0.97364290     0.03200
C358        C  0.43129920  0.28129980  0.95862438    -0.10900
H359        H  0.35468720  0.25309864  0.98250337     0.08800
H360        H  0.44744171  0.31499403  0.00136174     0.06300
H361        H  0.44347838  0.27876747  0.94501495     0.06100
C362        C  0.05319672  0.26216256  0.95844610     0.03200
C363        C  0.01685752  0.27715966  0.95672401    -0.13000
C364        C  0.99431876  0.28296713  0.97246318     0.00700
C365        C  0.01039146  0.27506807  0.98962938    -0.11500
C366        C  0.04245568  0.25380274  0.99118202     0.03200
C367        C  0.06465118  0.24807307  0.97557327    -0.10900
H368        H  0.00685552  0.28536657  0.94334101     0.08800
H369        H  0.99559908  0.28016683  0.00230831     0.06300
H370        H  0.09066144  0.23338531  0.97678469     0.06100
C371        C  0.39495407  0.49449342  0.96033826     0.03200
C372        C  0.43292667  0.48584806  0.95703296    -0.13000
C373        C  0.45540212  0.47347795  0.97165196     0.00700
C374        C  0.43635806  0.46400198  0.98795829    -0.11500
C375        C  0.40458191  0.48414315  0.99294121     0.03200
C376        C  0.38240026  0.49760657  0.97872519    -0.10900
H377        H  0.44457180  0.48930616  0.94339031     0.08800
H378        H  0.45086122  0.45019062  0.99888456     0.06300
H379        H  0.35602785  0.51052585  0.98194237     0.06100
C380        C  0.05398562  0.50108009  0.95956507     0.03200
C381        C  0.06536374  0.51600858  0.97667902    -0.13000
C382        C  0.04319488  0.51064776  0.99234975     0.00700
C383        C  0.01156314  0.48875955  0.99085760    -0.11500
C384        C  0.99558127  0.48010266  0.97372810     0.03200
C385        C  0.01792221  0.48551678  0.95797743    -0.10900
H386        H  0.09118546  0.53102534  0.97782195     0.08800
H387        H  0.99690697  0.48362296  0.00353460     0.06300
H388        H  0.00784784  0.47671383  0.94463456     0.06100
C389        C  0.09034216  0.21467778  0.79124668     0.03200
C390        C  0.08826400  0.17811599  0.79704520    -0.13000
C391        C  0.07964604  0.15049521  0.78436368     0.00700
C392        C  0.06742016  0.16103104  0.76681737    -0.11500
C393        C  0.08109585  0.19381090  0.75941676     0.03200
C394        C  0.08910248  0.22200089  0.77211974    -0.10900
H395        H  0.09718161  0.17076797  0.81076571     0.08800
H396        H  0.05810638  0.13971492  0.75755925     0.06300
H397        H  0.09822251  0.24824539  0.76720676     0.06100
C398        C  0.10932621  0.05126912  0.79020988     0.03200
C399        C  0.13390078  0.04903307  0.77485926    -0.13000
C400        C  0.14486082  0.08061305  0.76541592     0.00700
C401        C  0.13143958  0.11396249  0.77236361    -0.11500
C402        C  0.10135106  0.11589607  0.78462688     0.03200
C403        C  0.09122528  0.08457364  0.79431469    -0.10900
H404        H  0.14585604  0.02308580  0.77088730     0.08800
H405        H  0.14046154  0.13934818  0.76658234     0.06300
H406        H  0.07007093  0.08611500  0.80497084     0.06100
C407        C  0.35433541  0.05580790  0.79424008     0.03200
C408        C  0.37648534  0.04582136  0.77883061    -0.13000
C409        C  0.37807112  0.06880642  0.76361207     0.00700
C410        C  0.35549892  0.09961976  0.76350876    -0.11500
C411        C  0.33990705  0.11447100  0.77966658     0.03200
C412        C  0.33864287  0.09150528  0.79518727    -0.10900
H413        H  0.39154180  0.02030062  0.77851919     0.08800
H414        H  0.35452779  0.11401525  0.75070286     0.06300
H415        H  0.32462133  0.10074384  0.80760342     0.06100
C416        C  0.34846589  0.21497072  0.79224473     0.03200
C417        C  0.35714292  0.22631845  0.77422780    -0.13000
C418        C  0.34828567  0.20382519  0.75926691     0.00700
C419        C  0.32693801  0.17264026  0.76278348    -0.11500
C420        C  0.33141727  0.15498048  0.77983697     0.03200
C421        C  0.33924609  0.17779359  0.79514167    -0.10900
H422        H  0.37093408  0.25206505  0.77188047     0.08800
H423        H  0.31683201  0.15749166  0.75097843     0.06300
H424        H  0.33891923  0.16690969  0.80895331     0.06100
In425      In  0.13042566  0.47319639  0.91919951     1.36900
C426        C  0.20319283  0.48307550  0.92522224     0.77600
O427        O  0.11898735  0.42007842  0.93331133    -0.60800
O428        O  0.14120946  0.41903773  0.90613634    -0.51700
C429        C  0.08076884  0.49735817  0.94406992     0.70300
O430        O  0.11513110  0.50359621  0.94556945    -0.46600
C431        C  0.11630082  0.48860502  0.88411476     0.75000
O432        O  0.18337091  0.50759854  0.91808807    -0.58400
O433        O  0.09838348  0.46501852  0.89292134    -0.48500
O434        O  0.18526099  0.45576218  0.93062210    -0.54900
C435        C  0.12994766  0.40120571  0.91978416     0.85200
O436        O  0.07178592  0.48349635  0.92884716    -0.56800
O437        O  0.13781438  0.50784851  0.89384628    -0.60100
In438      In  0.13318168  0.47337619  0.82885962     1.36900
C439        C  0.12120708  0.40249602  0.82284912     0.77600
O440        O  0.18804462  0.49017167  0.81665066    -0.60800
O441        O  0.18803572  0.46261298  0.84223698    -0.51700
C442        C  0.10812312  0.02063558  0.80328558     0.70300
O443        O  0.12462356  0.48999945  0.79948670    -0.46600
C444        C  0.11722423  0.48869063  0.86387429     0.75000
O445        O  0.09504335  0.42318286  0.82806932    -0.58400
O446        O  0.14234080  0.50509602  0.85506517    -0.48500
O447        O  0.15113374  0.41860250  0.81933616    -0.54900
C448        C  0.20680900  0.47686800  0.82953151     0.85200
O449        O  0.10281237  0.02508188  0.82031642    -0.56800
O450        O  0.09705418  0.46790694  0.85419275    -0.60100
In451      In  0.32069699  0.47733258  0.83064153     1.36900
C452        C  0.33079581  0.40549781  0.82456443     0.77600
O453        O  0.35574736  0.47067261  0.85610374    -0.60800
O454        O  0.31006026  0.50729495  0.85708605    -0.51700
C455        C  0.34494951  0.02814260  0.80831792     0.70300
O456        O  0.35522604  0.49586629  0.80615240    -0.46600
C457        C  0.24722754  0.47723507  0.82970040     0.75000
O458        O  0.35541016  0.42492272  0.83222165    -0.58400
O459        O  0.26534879  0.46774367  0.84364843    -0.48500
O460        O  0.30377864  0.42336591  0.81833699    -0.54900
C461        C  0.33475503  0.49063848  0.86585103     0.85200
O462        O  0.32402099  0.03493533  0.82178526    -0.56800
O463        O  0.26661483  0.48627287  0.81595007    -0.60100
In464      In  0.31743091  0.47334156  0.92047109     1.36900
C465        C  0.24421653  0.48323939  0.92552518     0.77600
O466        O  0.31306305  0.01208733  0.89608013    -0.60800
O467        O  0.34976695  0.46395166  0.89450013    -0.51700
C468        C  0.36778507  0.49490063  0.94510857     0.70300
O469        O  0.33333279  0.49942588  0.94762273    -0.46600
C470        C  0.31774715  0.40169474  0.92083321     0.75000
O471        O  0.26443063  0.50770052  0.91852884    -0.58400
O472        O  0.30860028  0.41951249  0.90683840    -0.48500
O473        O  0.26189764  0.45619568  0.93134110    -0.54900
C474        C  0.33406481  0.48928721  0.88596259     0.85200
O475        O  0.37635395  0.48513779  0.92902517    -0.56800
O476        O  0.32664993  0.42041654  0.93472136    -0.60100
In477      In  0.31764219  0.29062349  0.92056033     1.36900
C478        C  0.24470916  0.27986781  0.92557347     0.77600
O479        O  0.32673108  0.34413613  0.93478338    -0.60800
O480        O  0.30788625  0.34399826  0.90705838    -0.51700
C481        C  0.36712027  0.27027748  0.94586781     0.70300
O482        O  0.33261006  0.26562814  0.94796268    -0.46600
C483        C  0.33362977  0.27640665  0.88561836     0.75000
O484        O  0.26545947  0.25477061  0.91931582    -0.58400
O485        O  0.35074220  0.30009803  0.89485251    -0.48500
O486        O  0.26179356  0.30798708  0.93068706    -0.54900
C487        C  0.31757301  0.36234599  0.92091250     0.85200
O488        O  0.37633905  0.27938556  0.92983241    -0.56800
O489        O  0.31244335  0.25604509  0.89491013    -0.60100
In490      In  0.31896202  0.29346504  0.83047456     1.36900
C491        C  0.33025287  0.36514246  0.82471932     0.77600
O492        O  0.26550510  0.28021443  0.81568826    -0.60800
O493        O  0.26273562  0.30480248  0.84227375    -0.51700
C494        C  0.34470223  0.24261829  0.80706605     0.70300
O495        O  0.34872765  0.27621738  0.80431664    -0.46600
C496        C  0.33284357  0.27760653  0.86546171     0.75000
O497        O  0.35455191  0.34542442  0.83230747    -0.58400
O498        O  0.30650238  0.26365208  0.85654249    -0.48500
O499        O  0.30260421  0.34770419  0.81878703    -0.54900
C500        C  0.24532509  0.29180876  0.82871574     0.85200
O501        O  0.33222168  0.23520611  0.82276112    -0.56800
O502        O  0.35457806  0.29716541  0.85604971    -0.60100
In503      In  0.13085959  0.29172383  0.82838851     1.36900
C504        C  0.12013793  0.36253527  0.82264217     0.77600
O505        O  0.09699215  0.29869941  0.85437254    -0.60800
O506        O  0.14077455  0.25967854  0.85412907    -0.51700
C507        C  0.10157166  0.24325693  0.80463463     0.70300
O508        O  0.10786994  0.27575459  0.80031399    -0.46600
C509        C  0.20479379  0.29079303  0.82836428     0.75000
O510        O  0.09514382  0.34340535  0.83013364    -0.58400
O511        O  0.18567422  0.30372074  0.84138447    -0.48500
O512        O  0.14759527  0.34481735  0.81664267    -0.54900
C513        C  0.11676981  0.27680434  0.86347505     0.85200
O514        O  0.10725754  0.23667570  0.82135171    -0.56800
O515        O  0.18623407  0.27750099  0.81523517    -0.60100
In516      In  0.13101236  0.28974535  0.91895317     1.36900
C517        C  0.20368449  0.27965541  0.92518318     0.77600
O518        O  0.13733712  0.25559447  0.89301042    -0.60800
O519        O  0.09960740  0.30002721  0.89294148    -0.51700
C520        C  0.08054994  0.26580596  0.94325495     0.70300
O521        O  0.11503566  0.26129584  0.94539966    -0.46600
C522        C  0.13024137  0.36169382  0.91980368     0.75000
O523        O  0.18392380  0.25472351  0.91814771    -0.58400
O524        O  0.14217039  0.34360289  0.90623774    -0.48500
O525        O  0.18570607  0.30729363  0.93033970    -0.54900
C526        C  0.11649389  0.27610411  0.88369136     0.85200
O527        O  0.07195507  0.27787990  0.92770472    -0.56800
O528        O  0.11908864  0.34308776  0.93324333    -0.60100
C529        C  0.19050081  0.27391713  0.54441074     0.00000
C530        C  0.17756678  0.26865789  0.52619235    -0.13000
C531        C  0.19953650  0.28033991  0.51134503     0.00700
C532        C  0.23127577  0.30105039  0.51549685    -0.11500
C533        C  0.25060228  0.29356487  0.53192610     0.03200
C534        C  0.22853365  0.28278339  0.54707769    -0.10900
H535        H  0.15116045  0.25540238  0.52361850     0.08800
H536        H  0.24555668  0.31370405  0.50408574     0.06300
H537        H  0.24058020  0.28080733  0.56067174     0.06100
C538        C  0.35096991  0.26550987  0.54470348     0.03200
C539        C  0.36198204  0.25025234  0.52761115    -0.13000
C540        C  0.33959627  0.25544467  0.51216721     0.00700
C541        C  0.30788090  0.27719509  0.51378997    -0.11500
C542        C  0.29211321  0.28614356  0.53098710     0.03200
C543        C  0.31485175  0.28112318  0.54657597    -0.10900
H544        H  0.38785829  0.23531432  0.52625557     0.08800
H545        H  0.29314234  0.28205171  0.50117532     0.06300
H546        H  0.30506428  0.29015315  0.55997614     0.06100
C547        C  0.19485713  0.50837001  0.54637679     0.03200
C548        C  0.18338473  0.52275139  0.52928684    -0.13000
C549        C  0.20514205  0.51645737  0.51352406     0.00700
C550        C  0.23659203  0.49429796  0.51489016    -0.11500
C551        C  0.25271728  0.48596500  0.53195842     0.03200
C552        C  0.23069792  0.49226037  0.54781227    -0.10900
H553        H  0.15775328  0.53809940  0.52822817     0.08800
H554        H  0.25100225  0.48867563  0.50215198     0.06300
H555        H  0.24078974  0.48371928  0.56112195     0.06100
C556        C  0.35442939  0.49812439  0.54434737     0.03200
C557        C  0.36718863  0.50196181  0.52600492    -0.13000
C558        C  0.34491100  0.48933024  0.51144011     0.00700
C559        C  0.31298420  0.46925988  0.51600517    -0.11500
C560        C  0.29407860  0.47799283  0.53252942     0.03200
C561        C  0.31646570  0.48957987  0.54737928    -0.10900
H562        H  0.39365296  0.51485295  0.52311840     0.08800
H563        H  0.29822027  0.45620605  0.50481008     0.06300
H564        H  0.30466241  0.49262786  0.56104422     0.06100
C565        C  0.40313960  0.05321092  0.71487023     0.03200
C566        C  0.39595095  0.04199320  0.73308206    -0.13000
C567        C  0.40447258  0.06522507  0.74782061     0.00700
C568        C  0.42519305  0.09667169  0.74389770    -0.11500
C569        C  0.41953856  0.11396117  0.72681415     0.03200
C570        C  0.41138995  0.09058656  0.71172234    -0.10900
H571        H  0.38272874  0.01607578  0.73571214     0.08800
H572        H  0.43559821  0.11210893  0.75552692     0.06300
H573        H  0.41059590  0.10121321  0.69786979     0.06100
C574        C  0.39322606  0.21211628  0.71175097     0.03200
C575        C  0.37291063  0.22257503  0.72765615    -0.13000
C576        C  0.37415175  0.20075418  0.74329281     0.00700
C577        C  0.39743255  0.17039950  0.74323061    -0.11500
C578        C  0.41089545  0.15459294  0.72678499     0.03200
C579        C  0.40962201  0.17668289  0.71089201    -0.10900
H580        H  0.35697775  0.24758541  0.72798697     0.08800
H581        H  0.39979205  0.15668178  0.75620145     0.06300
H582        H  0.42213080  0.16697300  0.69817784     0.06100
C583        C  0.13335084  0.22164633  0.71507394     0.03200
C584        C  0.10937567  0.22419637  0.73067370    -0.13000
C585        C  0.09956473  0.19286947  0.74061521     0.00700
C586        C  0.11362939  0.15956965  0.73401280    -0.11500
C587        C  0.14332371  0.15769385  0.72154697     0.03200
C588        C  0.15222787  0.18862016  0.71129509    -0.10900
H589        H  0.09694332  0.25004157  0.73445801     0.08800
H590        H  0.10523985  0.13428885  0.74010876     0.06300
H591        H  0.17290645  0.18691361  0.70041766     0.06100
C592        C  0.15488399  0.05921118  0.71478397     0.03200
C593        C  0.15605032  0.05174258  0.73388497    -0.13000
C594        C  0.16367243  0.07989787  0.74667354     0.00700
C595        C  0.17742616  0.11271139  0.73934955    -0.11500
C596        C  0.16529512  0.12331628  0.72178797     0.03200
C597        C  0.15679370  0.09579137  0.70905106    -0.10900
H598        H  0.14698653  0.02539769  0.73867632     0.08800
H599        H  0.18667912  0.13400011  0.74863141     0.06300
H600        H  0.14798347  0.10320032  0.69532267     0.06100
In601      In  0.11540033  0.29808522  0.58565547     1.36900
C602        C  0.04355893  0.28653005  0.57868879     0.77600
O603        O  0.10743809  0.26417075  0.61120462    -0.60800
O604        O  0.14693442  0.30697797  0.61204219    -0.51700
C605        C  0.16389825  0.27491257  0.56006742     0.70300
O606        O  0.12918979  0.27317129  0.55788912    -0.46600
C607        C  0.11621918  0.37012908  0.58539211     0.75000
O608        O  0.06363941  0.26197601  0.58565580    -0.58400
O609        O  0.10000305  0.35222101  0.59773249    -0.48500
O610        O  0.06089445  0.31476103  0.57407950    -0.54900
C611        C  0.12875344  0.28367669  0.62091745     0.85200
O612        O  0.17351746  0.28291540  0.57625803    -0.56800
O613        O  0.13188792  0.35133689  0.57304334    -0.60100
In614      In  0.11226257  0.29937588  0.67625532     1.36900
C615        C  0.12602577  0.36955033  0.68305114     0.77600
O616        O  0.14847048  0.30395881  0.65087518    -0.60800
O617        O  0.10174954  0.26856258  0.64992648    -0.51700
C618        C  0.13347949  0.25153157  0.70156187     0.70300
O619        O  0.12176047  0.28283361  0.70554678    -0.46600
C620        C  0.03864383  0.29622362  0.67501749     0.75000
O621        O  0.15076334  0.34894934  0.67627477    -0.58400
O622        O  0.05753932  0.31400907  0.66356606    -0.48500
O623        O  0.09661411  0.35358182  0.68771217    -0.54900
C624        C  0.12754783  0.28397598  0.64115807     0.85200
O625        O  0.14007346  0.24666672  0.68463987    -0.56800
O626        O  0.05724607  0.28004181  0.68708269    -0.60100
In627      In  0.42972458  0.29239673  0.58377996     1.36900
C628        C  0.50288781  0.28298392  0.57775302     0.77600
O629        O  0.42056268  0.34576440  0.56979170    -0.60800
O630        O  0.44038721  0.34593904  0.59738425    -0.51700
C631        C  0.37837666  0.26943977  0.55975680     0.70300
O632        O  0.41220195  0.26051072  0.55827279    -0.46600
C633        C  0.41280580  0.27692763  0.61849134     0.75000
O634        O  0.48344180  0.25888074  0.58555044    -0.58400
O635        O  0.39705626  0.30183596  0.60971203    -0.48500
O636        O  0.48437338  0.30915194  0.57152344    -0.54900
C637        C  0.43026894  0.36417040  0.58368264     0.85200
O638        O  0.37066525  0.28588645  0.57448445    -0.56800
O639        O  0.43411563  0.25687366  0.60893940    -0.60100
In640      In  0.42540459  0.29081637  0.67386329     1.36900
C641        C  0.41535276  0.36226510  0.68072574     0.77600
O642        O  0.47997779  0.28130542  0.68774615    -0.60800
O643        O  0.48007639  0.30448921  0.66096643    -0.51700
C644        C  0.40027491  0.23929654  0.69707147     0.70300
O645        O  0.38951241  0.27198838  0.69797304    -0.46600
C646        C  0.41175972  0.27615539  0.63864553     0.75000
O647        O  0.39113875  0.34338253  0.67242076    -0.58400
O648        O  0.43611009  0.25961387  0.64768646    -0.48500
O649        O  0.44171723  0.34393838  0.68727301    -0.54900
C650        C  0.49875729  0.29334744  0.67441380     0.85200
O651        O  0.42065758  0.23261350  0.68338371    -0.56800
O652        O  0.39081420  0.29662191  0.64814395    -0.60100
In653      In  0.42802027  0.47410805  0.67531077     1.36900
C654        C  0.41630545  0.40257823  0.68086166     0.77600
O655        O  0.39240260  0.46904238  0.64980245    -0.60800
O656        O  0.43937675  0.50404062  0.64919371    -0.51700
C657        C  0.40354628  0.52507382  0.69888447     0.70300
O658        O  0.40025432  0.49149149  0.70192874    -0.46600
C659        C  0.50146150  0.47658619  0.67689460     0.75000
O660        O  0.39211284  0.42260200  0.67341406    -0.58400
O661        O  0.48423033  0.46324564  0.66337085    -0.48500
O662        O  0.44415872  0.41966737  0.68685156    -0.54900
C663        C  0.41364353  0.48893068  0.64030289     0.85200
O664        O  0.41520023  0.03288689  0.68376510    -0.56800
O665        O  0.48124410  0.48787936  0.68994354    -0.60100
In666      In  0.42946383  0.47559923  0.58512910     1.36900
C667        C  0.50197986  0.48789670  0.58017371     0.77600
O668        O  0.43410304  0.50997220  0.61082885    -0.60800
O669        O  0.39660321  0.46529185  0.61093221    -0.51700
C670        C  0.38095677  0.49798128  0.55988736     0.70300
O671        O  0.41559874  0.50138228  0.55777622    -0.46600
C672        C  0.43001318  0.40364216  0.58400538     0.75000
O673        O  0.48092738  0.51181259  0.58727485    -0.58400
O674        O  0.44148379  0.42159324  0.59766023    -0.48500
O675        O  0.48537309  0.46007740  0.57427259    -0.54900
C676        C  0.41316737  0.48943942  0.62013278     0.85200
O677        O  0.37137124  0.48892613  0.57588829    -0.56800
O678        O  0.41845245  0.42236251  0.57076609    -0.60100
In679      In  0.11792743  0.48156910  0.58642263     1.36900
C680        C  0.04568124  0.49226287  0.57951197     0.77600
O681        O  0.13238277  0.42796664  0.57315549    -0.60800
O682        O  0.10115840  0.42796411  0.59806396    -0.51700
C683        C  0.16810810  0.50549786  0.56192639     0.70300
O684        O  0.13381275  0.51207524  0.56043065    -0.46600
C685        C  0.13252102  0.49459127  0.62183037     0.75000
O686        O  0.06445807  0.51503084  0.58875048    -0.58400
O687        O  0.14903814  0.47039278  0.61258885    -0.48500
O688        O  0.06464026  0.46701522  0.57233731    -0.54900
C689        C  0.11663598  0.40962249  0.58550068     0.85200
O690        O  0.17688534  0.49184765  0.57711773    -0.56800
O691        O  0.11225632  0.51551335  0.61245353    -0.60100
In692      In  0.11731027  0.47986798  0.67726802     1.36900
C693        C  0.12784328  0.40944135  0.68346236     0.77600
O694        O  0.06170866  0.49165293  0.69069090    -0.60800
O695        O  0.06289718  0.46621143  0.66433382    -0.51700
C696        C  0.14391283  0.03060809  0.70138982     0.70300
O697        O  0.14564895  0.49650788  0.70406198    -0.46600
C698        C  0.13188936  0.49404745  0.64207457     0.75000
O699        O  0.15211296  0.42803917  0.67508844    -0.58400
O700        O  0.10721877  0.51067670  0.65119885    -0.48500
O701        O  0.10155315  0.42764157  0.69036739    -0.54900
C702        C  0.04349940  0.47822784  0.67747218     0.85200
O703        O  0.13335237  0.03785613  0.68535844    -0.56800
O704        O  0.15206001  0.47294352  0.65143502    -0.60100
C705        C  0.38641560  0.96448397  0.29408121     0.03200
C706        C  0.40387308  0.92956508  0.29489943    -0.13000
C707        C  0.40612514  0.90704582  0.27902091     0.00700
C708        C  0.39203978  0.92175912  0.26263227    -0.11500
C709        C  0.36782763  0.95142880  0.26257775     0.03200
C710        C  0.36599060  0.97391179  0.27819302    -0.10900
H711        H  0.41664918  0.92066674  0.30756888     0.08800
H712        H  0.39505218  0.90774215  0.24965802     0.06300
H713        H  0.34945962  0.99853497  0.27789177     0.06100
C714        C  0.40444502  0.80586696  0.29119721     0.03200
C715        C  0.41094355  0.84370776  0.29421103    -0.13000
C716        C  0.41682872  0.86687823  0.27895515     0.00700
C717        C  0.42259016  0.84916466  0.26183850    -0.11500
C718        C  0.40301553  0.81683637  0.25822631     0.03200
C719        C  0.39603174  0.79386417  0.27313773    -0.10900
H720        H  0.41064837  0.85474083  0.30808100     0.08800
H721        H  0.43212113  0.86444170  0.25006544     0.06300
H722        H  0.38382606  0.76732944  0.27074497     0.06100
C723        C  0.19292976  0.75727104  0.45932779     0.03200
C724        C  0.22898073  0.74166508  0.45730668    -0.13000
C725        C  0.25160459  0.73565352  0.47283430     0.00700
C726        C  0.23579205  0.74359011  0.49019037    -0.11500
C727        C  0.20403685  0.76526709  0.49219610     0.03200
C728        C  0.18182876  0.77150026  0.47670430    -0.10900
H729        H  0.23884568  0.73340694  0.44379462     0.08800
H730        H  0.25066232  0.73814820  0.50270893     0.06300
H731        H  0.15606678  0.78656853  0.47820402     0.06100
C732        C  0.35323673  0.74897367  0.45972694     0.03200
C733        C  0.31528643  0.73998271  0.45679481    -0.13000
C734        C  0.29311772  0.72816291  0.47173365     0.00700
C735        C  0.31241578  0.71950066  0.48800763    -0.11500
C736        C  0.34421869  0.73985299  0.49249387     0.03200
C737        C  0.36604131  0.75286297  0.47797458    -0.10900
H738        H  0.30337823  0.74284231  0.44321489     0.08800
H739        H  0.29804489  0.70622362  0.49920646     0.06300
H740        H  0.39237912  0.76601523  0.48085861     0.06100
C741        C  0.35202243  0.51740364  0.46105019     0.03200
C742        C  0.31594948  0.53301075  0.45944683    -0.13000
C743        C  0.29380005  0.53944829  0.47522308     0.00700
C744        C  0.31006905  0.53168077  0.49237455    -0.11500
C745        C  0.34184643  0.50996722  0.49392766     0.03200
C746        C  0.36369025  0.50359672  0.47822501    -0.10900
H747        H  0.30572355  0.54099980  0.44607029     0.08800
H748        H  0.29555275  0.53727927  0.50508178     0.06300
H749        H  0.38944953  0.48847858  0.47937410     0.06100
C750        C  0.19125366  0.52779845  0.46320698     0.03200
C751        C  0.17921678  0.52416647  0.48166343    -0.13000
C752        C  0.20188993  0.53693872  0.49599770     0.00700
C753        C  0.23378721  0.55673710  0.49114784    -0.11500
C754        C  0.25233379  0.54747583  0.47460314     0.03200
C755        C  0.22936254  0.53595045  0.45985255    -0.10900
H756        H  0.15282343  0.51139574  0.48483837     0.08800
H757        H  0.24876872  0.57005801  0.50218762     0.06300
H758        H  0.24076983  0.53266651  0.44611780     0.06100
In759      In  0.11429536  0.73068680  0.42002869     1.36900
C760        C  0.04200584  0.74355372  0.42597194     0.77600
O761        O  0.11072948  0.76384187  0.39395935    -0.60800
O762        O  0.14412517  0.71618662  0.39380923    -0.51700
C763        C  0.16568545  0.75418082  0.44405406     0.70300
O764        O  0.13164348  0.76198249  0.44576979    -0.46600
C765        C  0.11137888  0.65886466  0.42209311     0.75000
O766        O  0.06198309  0.76589009  0.41721464    -0.58400
O767        O  0.09902863  0.67605997  0.40851179    -0.48500
O768        O  0.05977467  0.71788815  0.43316599    -0.54900
C769        C  0.12915519  0.74094012  0.38456342     0.85200
O770        O  0.17369883  0.73930205  0.42889707    -0.56800
O771        O  0.12451622  0.67832848  0.43484516    -0.60100
In772      In  0.10827686  0.72053108  0.33028242     1.36900
C773        C  0.11420844  0.64808481  0.32807935     0.77600
O774        O  0.14468113  0.71450055  0.35523410    -0.60800
O775        O  0.10394810  0.75658707  0.35532791    -0.51700
C776        C  0.13049708  0.76567328  0.30383368     0.70300
O777        O  0.11682192  0.73485738  0.30047730    -0.46600
C778        C  0.03497579  0.72818215  0.32995193     0.75000
O779        O  0.14305290  0.66776873  0.32720731    -0.58400
O780        O  0.05321536  0.72390538  0.34453526    -0.48500
O781        O  0.08428630  0.66549269  0.32902138    -0.54900
C782        C  0.12744707  0.73867464  0.36438519     0.85200
O783        O  0.13841444  0.77090479  0.32054726    -0.56800
O784        O  0.05423534  0.73016870  0.31547612    -0.60100
In785      In  0.11210540  0.54733828  0.42341378     1.36900
C786        C  0.03924051  0.53510848  0.42869860     0.77600
O787        O  0.12466301  0.60191415  0.43597168    -0.60800
O788        O  0.09734874  0.60015753  0.41010857    -0.51700
C789        C  0.16351844  0.52747153  0.44808670     0.70300
O790        O  0.12903613  0.52390270  0.45088903    -0.46600
C791        C  0.12695585  0.52925868  0.38885448     0.75000
O792        O  0.05966523  0.51259667  0.42016068    -0.58400
O793        O  0.14046378  0.55716011  0.39643834    -0.48500
O794        O  0.05674665  0.56088685  0.43617283    -0.54900
C795        C  0.11095265  0.61938266  0.42280589     0.85200
O796        O  0.17164015  0.53582216  0.43179178    -0.56800
O797        O  0.11017973  0.50784698  0.39959851    -0.60100
In798      In  0.10292575  0.53706616  0.33447078     1.36900
C799        C  0.11296814  0.60820468  0.32913220     0.77600
O800        O  0.04932178  0.53113959  0.31898120    -0.60800
O801        O  0.04731217  0.54024600  0.34796130    -0.51700
C802        C  0.12273025  0.48657847  0.30989218     0.70300
O803        O  0.12269139  0.52009896  0.30645707    -0.46600
C804        C  0.12436576  0.52627478  0.36879818     0.75000
O805        O  0.14059720  0.58678314  0.32910458    -0.58400
O806        O  0.09918460  0.50768268  0.36126537    -0.48500
O807        O  0.08202151  0.59293706  0.33112671    -0.54900
C808        C  0.02960595  0.53598647  0.33317058     0.85200
O809        O  0.11668611  0.47906000  0.32651056    -0.56800
O810        O  0.14225249  0.54679175  0.35806817    -0.60100
In811      In  0.43450326  0.72836703  0.32990601     1.36900
C812        C  0.42313800  0.65637152  0.32417411     0.77600
O813        O  0.48982972  0.73818511  0.31582455    -0.60800
O814        O  0.48952843  0.71823109  0.34317926    -0.51700
C815        C  0.40950987  0.77868107  0.30603520     0.70300
O816        O  0.40517469  0.74495127  0.30356694    -0.46600
C817        C  0.41786482  0.74234327  0.36497035     0.75000
O818        O  0.39800162  0.67691069  0.33072110    -0.58400
O819        O  0.44274149  0.75937128  0.35639089    -0.48500
O820        O  0.45188913  0.67314008  0.31907278    -0.54900
C821        C  0.50854872  0.72787016  0.32947922     0.85200
O822        O  0.42277618  0.78669101  0.32152674    -0.56800
O823        O  0.39808607  0.72171029  0.35505795    -0.60100
In824      In  0.43093895  0.72573849  0.42005861     1.36900
C825        C  0.50380662  0.73514446  0.42593141     0.77600
O826        O  0.41909002  0.67312433  0.43453003    -0.60800
O827        O  0.44081355  0.67126662  0.40725507    -0.51700
C828        C  0.38034280  0.74878030  0.44437142     0.70300
O829        O  0.41477073  0.75331331  0.44677009    -0.46600
C830        C  0.41701619  0.74130575  0.38514426     0.75000
O831        O  0.48433355  0.75950667  0.41843971    -0.58400
O832        O  0.40073265  0.71609196  0.39356375    -0.48500
O833        O  0.48548728  0.70851148  0.43180134    -0.54900
C834        C  0.42963154  0.65387104  0.42106564     0.85200
O835        O  0.37185420  0.73832677  0.42841404    -0.56800
O836        O  0.43709390  0.76157044  0.39513948    -0.60100
In837      In  0.42854177  0.54249453  0.42066596     1.36900
C838        C  0.50093320  0.53051276  0.42650828     0.77600
O839        O  0.43519073  0.50884039  0.39472727    -0.60800
O840        O  0.39547530  0.55156251  0.39486081    -0.51700
C841        C  0.37868829  0.51990496  0.44550064     0.70300
O842        O  0.41297344  0.51333915  0.44701908    -0.46600
C843        C  0.42938300  0.61440210  0.42128417     0.75000
O844        O  0.48033463  0.50625684  0.41946668    -0.58400
O845        O  0.44014534  0.59591632  0.40762475    -0.48500
O846        O  0.48387655  0.55857176  0.43189767    -0.54900
C847        C  0.41334419  0.52846849  0.38551227     0.85200
O848        O  0.36978603  0.53305289  0.43022339    -0.56800
O849        O  0.41876845  0.59622132  0.43496813    -0.60100
In850      In  0.42919137  0.54354996  0.33009882     1.36900
C851        C  0.42185171  0.61592184  0.32421214     0.77600
O852        O  0.39378824  0.55017280  0.35590613    -0.60800
O853        O  0.43882142  0.51298895  0.35625080    -0.51700
C854        C  0.40214932  0.49205994  0.30711208     0.70300
O855        O  0.39458726  0.52542139  0.30541375    -0.46600
C856        C  0.50254879  0.54000898  0.32870403     0.75000
O857        O  0.39605068  0.59725453  0.33134446    -0.58400
O858        O  0.48490482  0.55101692  0.34270129    -0.48500
O859        O  0.44903150  0.59717975  0.31860886    -0.54900
C860        C  0.41394015  0.52921370  0.36530820     0.85200
O861        O  0.42018271  0.48506909  0.32139772    -0.56800
O862        O  0.48275293  0.53168361  0.31498646    -0.60100
C863        C  0.15116319  0.95827815  0.29141530     0.03200
C864        C  0.15215619  0.92142292  0.29682480    -0.13000
C865        C  0.16124224  0.89427128  0.28391562     0.00700
C866        C  0.17450810  0.90550408  0.26663725    -0.11500
C867        C  0.16052273  0.93818560  0.25931998     0.03200
C868        C  0.15232577  0.96612964  0.27226590    -0.10900
H869        H  0.14295271  0.91367366  0.31047292     0.08800
H870        H  0.18507402  0.88460851  0.25743438     0.06300
H871        H  0.14360278  0.99264559  0.26758224     0.06100
C872        C  0.13133369  0.79504715  0.29000957     0.03200
C873        C  0.10937990  0.79170530  0.27382050    -0.13000
C874        C  0.09989818  0.82271338  0.26357005     0.00700
C875        C  0.11210657  0.85645516  0.27048324    -0.11500
C876        C  0.14016856  0.85929865  0.28368546     0.03200
C877        C  0.14880755  0.82863119  0.29414405    -0.10900
H878        H  0.09818412  0.76550778  0.26979715     0.08800
H879        H  0.10353364  0.88147833  0.26422505     0.06300
H880        H  0.16810161  0.83099626  0.30551837     0.06100
C881        C  0.34371091  0.96401810  0.21351483     0.03200
C882        C  0.33663730  0.92630099  0.21040642    -0.13000
C883        C  0.32909274  0.90332383  0.22556414     0.00700
C884        C  0.32268704  0.92110935  0.24262010    -0.11500
C885        C  0.34230625  0.95330080  0.24648929     0.03200
C886        C  0.35061176  0.97605719  0.23169426    -0.10900
H887        H  0.33776329  0.91515903  0.19656500     0.08800
H888        H  0.31249904  0.90581614  0.25426541     0.06300
H889        H  0.36305748  0.00242358  0.23427302     0.06100
C890        C  0.35664673  0.80445787  0.21115050     0.03200
C891        C  0.37740711  0.79523892  0.22698780    -0.13000
C892        C  0.37686604  0.81849102  0.24233577     0.00700
C893        C  0.35344852  0.84873937  0.24210644    -0.11500
C894        C  0.33907237  0.86301551  0.22569428     0.03200
C895        C  0.34013395  0.83978576  0.21004264    -0.10900
H896        H  0.39331823  0.77024042  0.22743050     0.08800
H897        H  0.35115462  0.86341736  0.25492482     0.06300
H898        H  0.32710508  0.84844785  0.19739157     0.06100
C899        C  0.10879860  0.96533432  0.21466734     0.03200
C900        C  0.13165607  0.96851596  0.23059737    -0.13000
C901        C  0.14301736  0.93727239  0.24025398     0.00700
C902        C  0.13187975  0.90348328  0.23284508    -0.11500
C903        C  0.10320751  0.90039766  0.21996032     0.03200
C904        C  0.09242353  0.93139085  0.21027441    -0.10900
H905        H  0.14204384  0.99488880  0.23484587     0.08800
H906        H  0.14144483  0.87833044  0.23861901     0.06300
H907        H  0.07244205  0.92898821  0.19919654     0.06100
C908        C  0.09586802  0.80099259  0.21267303     0.03200
C909        C  0.09390312  0.83769384  0.20702777    -0.13000
C910        C  0.08313774  0.86487983  0.21962623     0.00700
C911        C  0.06936650  0.85370099  0.23680908    -0.11500
C912        C  0.08341238  0.82129574  0.24438949     0.03200
C913        C  0.09333357  0.79342236  0.23176559    -0.10900
H914        H  0.10379580  0.84544220  0.19349718     0.08800
H915        H  0.05832122  0.87456736  0.24591065     0.06300
H916        H  0.10247226  0.76725651  0.23675650     0.06100
C917        C  0.39385942  0.74830469  0.04302711     0.03200
C918        C  0.42961137  0.73205694  0.04441971    -0.13000
C919        C  0.45167689  0.72601151  0.02857474     0.00700
C920        C  0.43542410  0.73422258  0.01149529    -0.11500
C921        C  0.40376481  0.75619656  0.01017068     0.03200
C922        C  0.38225745  0.76264683  0.02598072    -0.10900
H923        H  0.43976773  0.72357923  0.05772828     0.08800
H924        H  0.45002089  0.72901356  0.99875692     0.06300
H925        H  0.35674795  0.77821169  0.02498969     0.06100
C926        C  0.05368581  0.74519243  0.04386496     0.03200
C927        C  0.06667252  0.74978635  0.02558496    -0.13000
C928        C  0.04539644  0.73649888  0.01079773     0.00700
C929        C  0.01405346  0.71532648  0.01511755    -0.11500
C930        C  0.99421963  0.72323866  0.03151841     0.03200
C931        C  0.01583215  0.73537617  0.04661015    -0.10900
H932        H  0.09273088  0.76359849  0.02290420     0.08800
H933        H  0.00031502  0.70163707  0.00379900     0.06300
H934        H  0.00354387  0.73774992  0.06020426     0.06100
C935        C  0.39617049  0.51425883  0.04322160     0.03200
C936        C  0.43258686  0.52883473  0.04517586    -0.13000
C937        C  0.45562660  0.53371620  0.02965033     0.00700
C938        C  0.44009741  0.52556655  0.01239299    -0.11500
C939        C  0.40792433  0.50457095  0.01060030     0.03200
C940        C  0.38499148  0.49973800  0.02601564    -0.10900
H941        H  0.44244599  0.53721152  0.05862843     0.08800
H942        H  0.45537796  0.53041035  0.99986931     0.06300
H943        H  0.35877808  0.48547843  0.02459387     0.06100
C944        C  0.05568384  0.52148376  0.04270197     0.03200
C945        C  0.06852126  0.51830720  0.02432983    -0.13000
C946        C  0.04645477  0.53148532  0.00995629     0.00700
C947        C  0.01461382  0.55169474  0.01479903    -0.11500
C948        C  0.99557643  0.54284472  0.03122254     0.03200
C949        C  0.01778848  0.53044018  0.04588128    -0.10900
H950        H  0.09486690  0.50522446  0.02123937     0.08800
H951        H  0.99993272  0.56505558  0.00377240     0.06300
H952        H  0.00585800  0.52705321  0.05947429     0.06100
In953      In  0.13540021  0.72324166  0.17520432     1.36900
C954        C  0.12660733  0.65134288  0.17946780     0.77600
O955        O  0.09930811  0.71651401  0.14997707    -0.60800
O956        O  0.14407219  0.75420793  0.14894008    -0.51700
C957        C  0.10721483  0.77241428  0.19919664     0.70300
O958        O  0.11047867  0.73923936  0.20308196    -0.46600
C959        C  0.20913339  0.72541496  0.17576810     0.75000
O960        O  0.10048435  0.67087345  0.17338544    -0.58400
O961        O  0.19074946  0.71661544  0.16172936    -0.48500
O962        O  0.15445936  0.66897787  0.18490909    -0.54900
C963        C  0.11883494  0.73766783  0.14025960     0.85200
O964        O  0.11542350  0.77950419  0.18277007    -0.56800
O965        O  0.18990621  0.73418294  0.18967416    -0.60100
In966      In  0.13037496  0.72437984  0.08451468     1.36900
C967        C  0.20298794  0.73529851  0.07809621     0.77600
O968        O  0.13639196  0.75922081  0.11022534    -0.60800
O969        O  0.10018237  0.71372588  0.11112461    -0.51700
C970        C  0.08031606  0.74575478  0.05948409     0.70300
O971        O  0.11484342  0.75020778  0.05733220    -0.46600
C972        C  0.13037469  0.65246344  0.08368799     0.75000
O973        O  0.18288908  0.75975614  0.08542538    -0.58400
O974        O  0.14403827  0.67056128  0.09677453    -0.48500
O975        O  0.18529957  0.70780756  0.07259374    -0.54900
C976        C  0.11691730  0.73819198  0.12001714     0.85200
O977        O  0.07130749  0.73635696  0.07552654    -0.56800
O978        O  0.11696769  0.67101244  0.07082316    -0.60100
In979      In  0.13162819  0.54117602  0.08344924     1.36900
C980        C  0.20446760  0.53081070  0.07781342     0.77600
O981        O  0.11888270  0.59449631  0.07006659    -0.60800
O982        O  0.14290892  0.59493600  0.09677490    -0.51700
C983        C  0.08232986  0.52036534  0.05816929     0.70300
O984        O  0.11688461  0.51625447  0.05586696    -0.46600
C985        C  0.11755759  0.52507070  0.11822492     0.75000
O986        O  0.18412265  0.50590221  0.08428323    -0.58400
O987        O  0.10063300  0.55000005  0.10995777    -0.48500
O988        O  0.18704093  0.55869495  0.07284167    -0.54900
C989        C  0.13056007  0.61302902  0.08349704     0.85200
O990        O  0.07312450  0.52903797  0.07435397    -0.56800
O991        O  0.13726417  0.50469539  0.10802510    -0.60100
In992      In  0.13897766  0.53971055  0.17284725     1.36900
C993        C  0.12791377  0.61124994  0.17861366     0.77600
O994        O  0.19312061  0.53017025  0.18714579    -0.60800
O995        O  0.19398718  0.54611320  0.15902512    -0.51700
C996        C  0.11869486  0.48947316  0.19721346     0.70300
O997        O  0.12061351  0.52283979  0.20113014    -0.46600
C998        C  0.12025182  0.52492283  0.13833459     0.75000
O999        O  0.10131905  0.59056773  0.17403117    -0.58400
O1000       O  0.14708378  0.50964495  0.14625673    -0.48500
O1001       O  0.15814196  0.59500826  0.18122336    -0.54900
C1002       C  0.21225347  0.53797779  0.17317231     0.85200
O1003       O  0.12219592  0.48240056  0.18032549    -0.56800
O1004       O  0.10017708  0.54479467  0.14864916    -0.60100
In1005     In  0.31686171  0.72414541  0.08328474     1.36900
C1006       C  0.24406295  0.73539685  0.07783311     0.77600
O1007       O  0.32488661  0.67088645  0.06850789    -0.60800
O1008       O  0.30549998  0.67054544  0.09624076    -0.51700
C1009       C  0.36740363  0.74600188  0.05865960     0.70300
O1010       O  0.33366895  0.75528024  0.05767526    -0.46600
C1011       C  0.33420607  0.73838927  0.11819738     0.75000
O1012       O  0.26418074  0.75909477  0.08565772    -0.58400
O1013       O  0.35008708  0.71395610  0.10885550    -0.48500
O1014       O  0.26178533  0.70864185  0.07137574    -0.54900
C1015       C  0.31527199  0.65240250  0.08226166     0.85200
O1016       O  0.37570434  0.73042997  0.07340221    -0.56800
O1017       O  0.31275209  0.75868013  0.10911549    -0.60100
In1018     In  0.32310054  0.72415504  0.17380976     1.36900
C1019       C  0.33450043  0.65228260  0.17915568     0.77600
O1020       O  0.26931823  0.73339708  0.18930587    -0.60800
O1021       O  0.26743300  0.71450995  0.16154001    -0.51700
C1022       C  0.34927771  0.77629885  0.19676766     0.70300
O1023       O  0.35752528  0.74311036  0.19846666    -0.46600
C1024       C  0.33535857  0.73856270  0.13839036     0.75000
O1025       O  0.35863233  0.67217276  0.17148432    -0.58400
O1026       O  0.31057286  0.75419388  0.14779008    -0.48500
O1027       O  0.30708351  0.66967480  0.18557625    -0.54900
C1028       C  0.24960719  0.72458789  0.17563601     0.85200
O1029       O  0.33108979  0.78286686  0.18246352    -0.56800
O1030       O  0.35711829  0.71873950  0.14755363    -0.60100
In1031     In  0.32590924  0.53983308  0.17291201     1.36900
C1032       C  0.33504759  0.61186054  0.17891802     0.77600
O1033       O  0.35950973  0.54767833  0.14692430    -0.60800
O1034       O  0.31709453  0.50745932  0.14702013    -0.51700
C1035       C  0.34981726  0.48928472  0.19666646     0.70300
O1036       O  0.35690169  0.52268965  0.19866111    -0.46600
C1037       C  0.25253523  0.53858143  0.17334788     0.75000
O1038       O  0.36015402  0.59257665  0.17138094    -0.58400
O1039       O  0.27106984  0.54658344  0.15924643    -0.48500
O1040       O  0.30773068  0.59383564  0.18478769    -0.54900
C1041       C  0.33969785  0.52582185  0.13767696     0.85200
O1042       O  0.33570893  0.48147173  0.18136256    -0.56800
O1043       O  0.27139223  0.53188237  0.18751880    -0.60100
In1044     In  0.31832342  0.54129455  0.08301153     1.36900
C1045       C  0.24545779  0.53046439  0.07771698     0.77600
O1046       O  0.31693814  0.50568280  0.10826184    -0.60800
O1047       O  0.35095457  0.55283959  0.10861826    -0.51700
C1048       C  0.36903762  0.51847639  0.05846851     0.70300
O1049       O  0.33541448  0.50876286  0.05752960    -0.46600
C1050       C  0.31576091  0.61295197  0.08223871     0.75000
O1051       O  0.26533958  0.50705624  0.08571398    -0.58400
O1052       O  0.30651408  0.59499500  0.09622467    -0.48500
O1053       O  0.26337042  0.55666261  0.07110238    -0.54900
C1054       C  0.33739806  0.52687499  0.11754821     0.85200
O1055       O  0.37688622  0.53583791  0.07287918    -0.56800
O1056       O  0.32568622  0.59429718  0.06842019    -0.60100
C1057       C  0.39143458  0.77030616  0.95988222     0.03200
C1058       C  0.37873448  0.76526242  0.97814857    -0.13000
C1059       C  0.40076515  0.77745511  0.99288480     0.00700
C1060       C  0.43247702  0.79806366  0.98864961    -0.11500
C1061       C  0.45164901  0.79032804  0.97207686     0.03200
C1062       C  0.42941945  0.77935420  0.95701613    -0.10900
H1063       H  0.35238998  0.75198954  0.98085191     0.08800
H1064       H  0.44688102  0.81089053  0.00002623     0.06300
H1065       H  0.44135362  0.77720996  0.94333627     0.06100
C1066       C  0.05321106  0.76634129  0.96043463     0.03200
C1067       C  0.01679868  0.78103994  0.95879581    -0.13000
C1068       C  0.99399348  0.78611041  0.97446314     0.00700
C1069       C  0.00983626  0.77804488  0.99164789    -0.11500
C1070       C  0.04221239  0.75724825  0.99325571     0.03200
C1071       C  0.06482521  0.75222810  0.97761103    -0.10900
H1072       H  0.00672475  0.78930809  0.94543829     0.08800
H1073       H  0.99467229  0.78270943  0.00426519     0.06300
H1074       H  0.09100906  0.73784257  0.97878453     0.06100
C1075       C  0.39399273  0.99535981  0.96151698     0.03200
C1076       C  0.43177304  0.98600373  0.95818397    -0.13000
C1077       C  0.45435189  0.97416619  0.97286523     0.00700
C1078       C  0.43565497  0.96581370  0.98941027    -0.11500
C1079       C  0.40411823  0.98639418  0.99424186     0.03200
C1080       C  0.38178502  0.99938744  0.97993699    -0.10900
H1081       H  0.44334982  0.98883143  0.94448449     0.08800
H1082       H  0.45047759  0.95265941  0.00045460     0.06300
H1083       H  0.35565311  0.01280612  0.98310550     0.06100
C1084       C  0.05405708  0.00299060  0.95870293     0.03200
C1085       C  0.06598454  0.01639082  0.97602434    -0.13000
C1086       C  0.04455332  0.00941964  0.99175573     0.00700
C1087       C  0.01276351  0.98773689  0.99003403    -0.11500
C1088       C  0.99629080  0.98040081  0.97282568     0.03200
C1089       C  0.01813992  0.98721042  0.95706273    -0.10900
H1090       H  0.09169399  0.03156223  0.97727092     0.08800
H1091       H  0.99835058  0.98191794  0.00270337     0.06300
H1092       H  0.00778850  0.97939701  0.94362010     0.06100
C1093       C  0.08997343  0.71338544  0.79082888     0.03200
C1094       C  0.08820311  0.67669552  0.79639264    -0.13000
C1095       C  0.08006634  0.64934406  0.78349654     0.00700
C1096       C  0.06780045  0.66020417  0.76600692    -0.11500
C1097       C  0.08150204  0.69311968  0.75879185     0.03200
C1098       C  0.08922862  0.72108024  0.77170207    -0.10900
H1099       H  0.09691946  0.66911080  0.81011218     0.08800
H1100       H  0.05856011  0.63905832  0.75663581     0.06300
H1101       H  0.09822228  0.74749130  0.76697012     0.06100
C1102       C  0.11271382  0.55116041  0.78993320     0.03200
C1103       C  0.13682205  0.54887345  0.77435973    -0.13000
C1104       C  0.14641799  0.58033745  0.76444893     0.00700
C1105       C  0.13199677  0.61349712  0.77109280    -0.11500
C1106       C  0.10229358  0.61509178  0.78357418     0.03200
C1107       C  0.09362266  0.58403574  0.79375422    -0.10900
H1108       H  0.14943252  0.52312082  0.77056382     0.08800
H1109       H  0.14022629  0.63889557  0.76507948     0.06300
H1110       H  0.07291060  0.58552485  0.80462358     0.06100
C1111       C  0.35430467  0.55654996  0.79345797     0.03200
C1112       C  0.37559299  0.54636912  0.77783922    -0.13000
C1113       C  0.37535730  0.56841420  0.76230357     0.00700
C1114       C  0.35203667  0.59867987  0.76208988    -0.11500
C1115       C  0.33728335  0.61409960  0.77833083     0.03200
C1116       C  0.33763546  0.59186145  0.79418807    -0.10900
H1117       H  0.39154777  0.52136667  0.77764157     0.08800
H1118       H  0.35040469  0.61253230  0.74913223     0.06300
H1119       H  0.32424531  0.60134713  0.80672507     0.06100
C1120       C  0.34539677  0.71492047  0.79042526     0.03200
C1121       C  0.35395700  0.72607350  0.77235157    -0.13000
C1122       C  0.34534400  0.70326676  0.75745747     0.00700
C1123       C  0.32410506  0.67203169  0.76109912    -0.11500
C1124       C  0.32861834  0.65463172  0.77823936     0.03200
C1125       C  0.33627873  0.67775831  0.79344082    -0.10900
H1126       H  0.36770224  0.75181260  0.76992990     0.08800
H1127       H  0.31402825  0.65675021  0.74934126     0.06300
H1128       H  0.33601871  0.66708950  0.80729414     0.06100
In1129     In  0.13004385  0.97650064  0.91830314     1.36900
C1130       C  0.20253675  0.98716074  0.92466352     0.77600
O1131       O  0.11747430  0.92405392  0.93276925    -0.60800
O1132       O  0.14237370  0.92199024  0.90615830    -0.51700
C1133       C  0.08042435  0.00057154  0.94301206     0.70300
O1134       O  0.11465125  0.00753262  0.94438951    -0.46600
C1135       C  0.11473733  0.98864976  0.88305731     0.75000
O1136       O  0.18308557  0.01088292  0.91663368    -0.58400
O1137       O  0.09848773  0.96470015  0.89234656    -0.48500
O1138       O  0.18435509  0.96042798  0.93056256    -0.54900
C1139       C  0.12942357  0.90470075  0.91962273     0.85200
O1140       O  0.07141481  0.98673199  0.92779154    -0.56800
O1141       O  0.13524991  0.00981064  0.89232415    -0.60100
In1142     In  0.12981860  0.97153951  0.82787785     1.36900
C1143       C  0.11781759  0.90070152  0.82207765     0.77600
O1144       O  0.18516125  0.98559779  0.81511244    -0.60800
O1145       O  0.18448922  0.96243102  0.84177008    -0.51700
C1146       C  0.11243997  0.52116419  0.80339976     0.70300
O1147       O  0.11809641  0.98897358  0.79882691    -0.46600
C1148       C  0.11487273  0.98740846  0.86284475     0.75000
O1149       O  0.09178522  0.92130487  0.82758797    -0.58400
O1150       O  0.13824792  0.00503135  0.85349911    -0.48500
O1151       O  0.14746643  0.91690840  0.81808796    -0.54900
C1152       C  0.20361413  0.97474630  0.82869288     0.85200
O1153       O  0.10504813  0.52581386  0.82026065    -0.56800
O1154       O  0.09584479  0.96461693  0.85374629    -0.60100
In1155     In  0.31759789  0.97669369  0.83090738     1.36900
C1156       C  0.32748550  0.90491648  0.82427922     0.77600
O1157       O  0.35210818  0.96939329  0.85655669    -0.60800
O1158       O  0.30836524  0.00806561  0.85729615    -0.51700
C1159       C  0.34670496  0.52904690  0.80787230     0.70300
O1160       O  0.35450425  0.99515449  0.80714557    -0.46600
C1161       C  0.24406091  0.97587582  0.82932466     0.75000
O1162       O  0.35203275  0.92405648  0.83216843    -0.58400
O1163       O  0.26176188  0.96763989  0.84363485    -0.48500
O1164       O  0.30039683  0.92298979  0.81831803    -0.54900
C1165       C  0.33257450  0.99092875  0.86616706     0.85200
O1166       O  0.32817083  0.53602039  0.82215444    -0.56800
O1167       O  0.26391155  0.98442128  0.81565387    -0.60100
In1168     In  0.31663314  0.97616638  0.92106624     1.36900
C1169       C  0.24351207  0.98717646  0.92544873     0.77600
O1170       O  0.31307035  0.50938392  0.89568625    -0.60800
O1171       O  0.34846001  0.96568050  0.89506079    -0.51700
C1172       C  0.36682232  0.99638288  0.94623749     0.70300
O1173       O  0.33232065  0.00047035  0.94875938    -0.46600
C1174       C  0.31593599  0.90433044  0.92100865     0.75000
O1175       O  0.26430499  0.01158473  0.91881974    -0.58400
O1176       O  0.30733268  0.92270256  0.90713531    -0.48500
O1177       O  0.26060913  0.95987938  0.93137618    -0.54900
C1178       C  0.33297276  0.99092884  0.88635205     0.85200
O1179       O  0.37550842  0.98788919  0.92997593    -0.56800
O1180       O  0.32470233  0.92257578  0.93508120    -0.60100
In1181     In  0.31504923  0.79311840  0.91944630     1.36900
C1182       C  0.24202878  0.78280538  0.92453890     0.77600
O1183       O  0.32426057  0.84601041  0.93435249    -0.60800
O1184       O  0.30597061  0.84723184  0.90655068    -0.51700
C1185       C  0.36471779  0.77091536  0.94437157     0.70300
O1186       O  0.33024041  0.76575657  0.94633309    -0.46600
C1187       C  0.33091856  0.77861507  0.88439567     0.75000
O1188       O  0.26236248  0.75820754  0.91750911    -0.58400
O1189       O  0.34725426  0.80310056  0.89345389    -0.48500
O1190       O  0.25949901  0.81026277  0.93021421    -0.54900
C1191       C  0.31546204  0.86492409  0.92066639     0.85200
O1192       O  0.37377394  0.78187834  0.92862871    -0.56800
O1193       O  0.31005364  0.75822335  0.89383248    -0.60100
In1194     In  0.31644927  0.79284672  0.82914841     1.36900
C1195       C  0.32720610  0.86457137  0.82385278     0.77600
O1196       O  0.26243659  0.77896329  0.81500855    -0.60800
O1197       O  0.26060081  0.80369051  0.84154319    -0.51700
C1198       C  0.34206870  0.74258346  0.80530482     0.70300
O1199       O  0.34507321  0.77626828  0.80248788    -0.46600
C1200       C  0.33091065  0.77852042  0.86420366     0.75000
O1201       O  0.35181271  0.84471823  0.83109960    -0.58400
O1202       O  0.30630035  0.76196237  0.85518317    -0.48500
O1203       O  0.29960434  0.84720127  0.81776282    -0.54900
C1204       C  0.24272994  0.79049355  0.82821193     0.85200
O1205       O  0.33104001  0.73495131  0.82124264    -0.56800
O1206       O  0.35135159  0.79927762  0.85476464    -0.60100
In1207     In  0.12833892  0.79032335  0.82855747     1.36900
C1208       C  0.11705229  0.86074251  0.82216076     0.77600
O1209       O  0.09357721  0.79806523  0.85430236    -0.60800
O1210       O  0.13832122  0.76026486  0.85494927    -0.51700
C1211       C  0.10024156  0.74180321  0.80450988     0.70300
O1212       O  0.10564520  0.77457394  0.80044699    -0.46600
C1213       C  0.20223319  0.78938796  0.82822166     0.75000
O1214       O  0.09227994  0.84170040  0.82987722    -0.58400
O1215       O  0.18341867  0.80425442  0.84082378    -0.48500
O1216       O  0.14461692  0.84303720  0.81625718    -0.54900
C1217       C  0.11371465  0.77739487  0.86390342     0.85200
O1218       O  0.10588325  0.73489238  0.82121821    -0.56800
O1219       O  0.18340150  0.77415603  0.81575911    -0.60100
In1220     In  0.12826623  0.79319465  0.91927814     1.36900
C1221       C  0.20103577  0.78268951  0.92455111     0.77600
O1222       O  0.13352070  0.75768297  0.89380688    -0.60800
O1223       O  0.09655995  0.80267744  0.89309095    -0.51700
C1224       C  0.07974018  0.76966272  0.94477307     0.70300
O1225       O  0.11437214  0.76524822  0.94631506    -0.46600
C1226       C  0.12866295  0.86522428  0.91976803     0.75000
O1227       O  0.18112796  0.75874877  0.91680351    -0.58400
O1228       O  0.14081540  0.84667222  0.90642389    -0.48500
O1229       O  0.18317025  0.80942942  0.93092586    -0.54900
C1230       C  0.11311367  0.77798691  0.88416679     0.85200
O1231       O  0.07005170  0.78124345  0.92925215    -0.56800
O1232       O  0.11618889  0.84707986  0.93306813    -0.60100
C1233       C  0.19302349  0.77691701  0.54301578     0.00000
C1234       C  0.17981375  0.77272732  0.52476142    -0.13000
C1235       C  0.20128313  0.78578467  0.50998629     0.00700
C1236       C  0.23300884  0.80636327  0.51432299    -0.11500
C1237       C  0.25266261  0.79797406  0.53052878     0.03200
C1238       C  0.23100467  0.78606436  0.54561230    -0.10900
H1239       H  0.15350186  0.75937282  0.52209095     0.08800
H1240       H  0.24715799  0.81965881  0.50305469     0.06300
H1241       H  0.24337668  0.78328705  0.55909414     0.06100
C1242       C  0.35337377  0.77016883  0.54256597     0.03200
C1243       C  0.36429816  0.75564156  0.52529283    -0.13000
C1244       C  0.34138726  0.76078931  0.51001398     0.00700
C1245       C  0.30953920  0.78230336  0.51192693    -0.11500
C1246       C  0.29416919  0.79083847  0.52926506     0.03200
C1247       C  0.31722767  0.78552802  0.54468803    -0.10900
H1248       H  0.39017220  0.74076261  0.52375872     0.08800
H1249       H  0.29432132  0.78718572  0.49944955     0.06300
H1250       H  0.30756420  0.79403279  0.55819585     0.06100
C1251       C  0.19110037  0.00601240  0.54657657     0.03200
C1252       C  0.17867782  0.01780304  0.52911528    -0.13000
C1253       C  0.20060193  0.01103217  0.51343696     0.00700
C1254       C  0.23354832  0.99113953  0.51540409    -0.11500
C1255       C  0.25023545  0.98549803  0.53270730     0.03200
C1256       C  0.22783672  0.99211452  0.54838265    -0.10900
H1257       H  0.15225107  0.03167955  0.52773070     0.08800
H1258       H  0.24835604  0.98546436  0.50278838     0.06300
H1259       H  0.23845195  0.98566559  0.56189887     0.06100
C1260       C  0.35204723  0.00139699  0.54529818     0.03200
C1261       C  0.36413227  0.00616208  0.52691135    -0.13000
C1262       C  0.34220731  0.99256328  0.51245982     0.00700
C1263       C  0.31143231  0.97106176  0.51713388    -0.11500
C1264       C  0.29206298  0.97951036  0.53353200     0.03200
C1265       C  0.31421130  0.99185198  0.54841916    -0.10900
H1266       H  0.39007114  0.01993165  0.52390493     0.08800
H1267       H  0.29754436  0.95688187  0.50602205     0.06300
H1268       H  0.30251161  0.99423541  0.56213437     0.06100
C1269       C  0.40097186  0.55298228  0.71364084     0.03200
C1270       C  0.39285372  0.54198892  0.73175811    -0.13000
C1271       C  0.40157439  0.56497564  0.74651955     0.00700
C1272       C  0.42271353  0.59618875  0.74276390    -0.11500
C1273       C  0.41795245  0.61340923  0.72560085     0.03200
C1274       C  0.41010541  0.59010544  0.71047503    -0.10900
H1275       H  0.37910986  0.51629608  0.73431398     0.08800
H1276       H  0.43290074  0.61158461  0.75446210     0.06300
H1277       H  0.41007480  0.60063186  0.69659331     0.06100
C1278       C  0.39263354  0.71161781  0.71035572     0.03200
C1279       C  0.37144977  0.72197935  0.72602261    -0.13000
C1280       C  0.37154869  0.69990511  0.74159661     0.00700
C1281       C  0.39458179  0.66942082  0.74173609    -0.11500
C1282       C  0.40922568  0.65393368  0.72548423     0.03200
C1283       C  0.40900605  0.67617008  0.70963812    -0.10900
H1284       H  0.35572819  0.74711673  0.72622752     0.08800
H1285       H  0.39617089  0.65552537  0.75468266     0.06300
H1286       H  0.42229299  0.66655695  0.69709837     0.06100
C1287       C  0.13396284  0.72181383  0.71456406     0.03200
C1288       C  0.10994060  0.72409422  0.73017171    -0.13000
C1289       C  0.09995518  0.69255407  0.73993849     0.00700
C1290       C  0.11370839  0.65928632  0.73304124    -0.11500
C1291       C  0.14349774  0.65755249  0.72061507     0.03200
C1292       C  0.15275279  0.68877689  0.71065441    -0.10900
H1293       H  0.09770654  0.74993844  0.73411394     0.08800
H1294       H  0.10525498  0.63386534  0.73897109     0.06300
H1295       H  0.17358201  0.68727017  0.69984210     0.06100
C1296       C  0.15624636  0.55878182  0.71383069     0.03200
C1297       C  0.15793152  0.55134460  0.73293835    -0.13000
C1298       C  0.16516553  0.57968197  0.74568034     0.00700
C1299       C  0.17820061  0.61271537  0.73829212    -0.11500
C1300       C  0.16555689  0.62315257  0.72080197     0.03200
C1301       C  0.15720414  0.59544923  0.70811240    -0.10900
H1302       H  0.14949419  0.52485458  0.73780805     0.08800
H1303       H  0.18731017  0.63410804  0.74755440     0.06300
H1304       H  0.14793788  0.60269804  0.69443768     0.06100
In1305     In  0.11750495  0.79740566  0.58484614     1.36900
C1306       C  0.04528851  0.78508018  0.57848295     0.77600
O1307       O  0.11214424  0.76239714  0.61025065    -0.60800
O1308       O  0.14834153  0.80786381  0.61130531    -0.51700
C1309       C  0.16675147  0.77651310  0.55888680     0.70300
O1310       O  0.13216886  0.77213434  0.55708539    -0.46600
C1311       C  0.11622584  0.86926868  0.58537617     0.75000
O1312       O  0.06579699  0.76127534  0.58580282    -0.58400
O1313       O  0.10060692  0.85046056  0.59753929    -0.48500
O1314       O  0.06245622  0.81278078  0.57295295    -0.54900
C1315       C  0.13170939  0.78338963  0.62010011     0.85200
O1316       O  0.17624064  0.78583249  0.57491866    -0.56800
O1317       O  0.13207280  0.85146665  0.57271228    -0.60100
In1318     In  0.11341537  0.79946949  0.67544339     1.36900
C1319       C  0.12527183  0.87015787  0.68228966     0.77600
O1320       O  0.15006168  0.80447143  0.65017476    -0.60800
O1321       O  0.10408732  0.76825036  0.64902558    -0.51700
C1322       C  0.13424777  0.75193338  0.70111741     0.70300
O1323       O  0.12113193  0.78279378  0.70491079    -0.46600
C1324       C  0.03996822  0.79506049  0.67439254     0.75000
O1325       O  0.15099244  0.84991901  0.67616180    -0.58400
O1326       O  0.05842795  0.81241806  0.66259510    -0.48500
O1327       O  0.09568943  0.85370990  0.68613309    -0.54900
C1328       C  0.12986332  0.78395282  0.64036564     0.85200
O1329       O  0.14249168  0.74759341  0.68432786    -0.56800
O1330       O  0.05896455  0.77942530  0.68648212    -0.60100
In1331     In  0.43062514  0.79464691  0.58265769     1.36900
C1332       C  0.50353905  0.78459965  0.57758305     0.77600
O1333       O  0.42170527  0.84836301  0.56888205    -0.60800
O1334       O  0.44174453  0.84810745  0.59639454    -0.51700
C1335       C  0.38048221  0.77299237  0.55780754     0.70300
O1336       O  0.41457823  0.76521506  0.55617729    -0.46600
C1337       C  0.41367022  0.77778315  0.61722106     0.75000
O1338       O  0.48333640  0.75992228  0.58438813    -0.58400
O1339       O  0.39688682  0.80215787  0.60849526    -0.48500
O1340       O  0.48587742  0.81153939  0.57160524    -0.54900
C1341       C  0.43183525  0.86658586  0.58274207     0.85200
O1342       O  0.37201761  0.78721852  0.57302977    -0.56800
O1343       O  0.43582409  0.75876004  0.60761775    -0.60100
In1344     In  0.42626822  0.79058952  0.67280114     1.36900
C1345       C  0.41640296  0.86223273  0.67999546     0.77600
O1346       O  0.48033584  0.78033119  0.68715572    -0.60800
O1347       O  0.48159869  0.80392142  0.66047517    -0.51700
C1348       C  0.40044615  0.73890953  0.69580462     0.70300
O1349       O  0.39014781  0.77172283  0.69679840    -0.46600
C1350       C  0.41280304  0.77663467  0.63739814     0.75000
O1351       O  0.39168342  0.84338992  0.67203133    -0.58400
O1352       O  0.43752475  0.76037699  0.64632811    -0.48500
O1353       O  0.44328631  0.84380785  0.68590438    -0.54900
C1354       C  0.49971594  0.79259688  0.67408229     0.85200
O1355       O  0.42089102  0.73217755  0.68213660    -0.56800
O1356       O  0.39156546  0.79650595  0.64705312    -0.60100
In1357     In  0.42877846  0.97463078  0.67566074     1.36900
C1358       C  0.41736455  0.90263258  0.68050368     0.77600
O1359       O  0.39402722  0.96887595  0.64979294    -0.60800
O1360       O  0.43952539  0.00557773  0.64960905    -0.51700
C1361       C  0.40520734  0.02545543  0.69989800     0.70300
O1362       O  0.40188019  0.99179142  0.70272739    -0.46600
C1363       C  0.50234165  0.97681976  0.67730268     0.75000
O1364       O  0.39202292  0.92323820  0.67447101    -0.58400
O1365       O  0.48496420  0.96576762  0.66332483    -0.48500
O1366       O  0.44624705  0.91930607  0.68549163    -0.54900
C1367       C  0.41477152  0.98953675  0.64044565     0.85200
O1368       O  0.41408557  0.53229299  0.68282155    -0.56800
O1369       O  0.48220872  0.98607420  0.69078756    -0.60100
In1370     In  0.43061940  0.97807871  0.58476898     1.36900
C1371       C  0.50311727  0.99130074  0.57915442     0.77600
O1372       O  0.43438728  0.01190486  0.61089980    -0.60800
O1373       O  0.39972783  0.96518410  0.61089394    -0.51700
C1374       C  0.37954813  0.00069885  0.56050233     0.70300
O1375       O  0.41398700  0.00518768  0.55801781    -0.46600
C1376       C  0.43205942  0.90609775  0.58310906     0.75000
O1377       O  0.48222546  0.01442510  0.58702401    -0.58400
O1378       O  0.44397936  0.92384293  0.59673474    -0.48500
O1379       O  0.48626636  0.96406954  0.57274023    -0.54900
C1380       C  0.41478603  0.99010500  0.62019679     0.85200
O1381       O  0.37130541  0.99007155  0.57641710    -0.56800
O1382       O  0.42011965  0.92505653  0.57003089    -0.60100
In1383     In  0.11546295  0.98039938  0.58739064     1.36900
C1384       C  0.04274984  0.98924537  0.58123844     0.77600
O1385       O  0.12932328  0.92773696  0.57329117    -0.60800
O1386       O  0.10195924  0.92617828  0.59930688    -0.51700
C1387       C  0.16474995  0.00366193  0.56233763     0.70300
O1388       O  0.13043175  0.01045978  0.56111302    -0.46600
C1389       C  0.13060254  0.99478893  0.62260762     0.75000
O1390       O  0.06159374  0.01338318  0.58948296    -0.58400
O1391       O  0.14671924  0.97005090  0.61356214    -0.48500
O1392       O  0.06165352  0.96328811  0.57478709    -0.54900
C1393       C  0.11589144  0.90866326  0.58599786     0.85200
O1394       O  0.17399048  0.99030187  0.57753197    -0.56800
O1395       O  0.11032181  0.01545483  0.61309950    -0.60100
In1396     In  0.11574646  0.98096868  0.67797204     1.36900
C1397       C  0.12650778  0.91009639  0.68310679     0.77600
O1398       O  0.06025862  0.99083455  0.69196241    -0.60800
O1399       O  0.06135939  0.97029002  0.66454351    -0.51700
C1400       C  0.14550390  0.52996120  0.70047721     0.70300
O1401       O  0.14292034  0.99722495  0.70507671    -0.46600
C1402       C  0.13036755  0.99500708  0.64284817     0.75000
O1403       O  0.15096858  0.92939643  0.67531018    -0.58400
O1404       O  0.10602857  0.01216400  0.65196855    -0.48500
O1405       O  0.09973978  0.92770423  0.68994984    -0.54900
C1406       C  0.04203787  0.97983946  0.67819531     0.85200
O1407       O  0.13389688  0.53707548  0.68461069    -0.56800
O1408       O  0.15039495  0.97381547  0.65223216    -0.60100
C1409       C  0.88532319  0.46335170  0.29426692     0.03200
C1410       C  0.90261983  0.42839687  0.29522244    -0.13000
C1411       C  0.90518722  0.40588135  0.27936683     0.00700
C1412       C  0.89153302  0.42064243  0.26287840    -0.11500
C1413       C  0.86752992  0.45049504  0.26266241     0.03200
C1414       C  0.86540737  0.47291439  0.27826094    -0.10900
H1415       H  0.91505887  0.41948268  0.30797163     0.08800
H1416       H  0.89472758  0.40658153  0.24992935     0.06300
H1417       H  0.84897800  0.49759675  0.27787084     0.06100
C1418       C  0.90321273  0.30470665  0.29161048     0.03200
C1419       C  0.90976343  0.34254060  0.29465631    -0.13000
C1420       C  0.91581944  0.36570094  0.27939990     0.00700
C1421       C  0.92179639  0.34794620  0.26232401    -0.11500
C1422       C  0.90205597  0.31576559  0.25865245     0.03200
C1423       C  0.89473254  0.29282082  0.27353868    -0.10900
H1424       H  0.90952018  0.35353444  0.30853500     0.08800
H1425       H  0.93160805  0.36315159  0.25058227     0.06300
H1426       H  0.88250227  0.26631306  0.27109880     0.06100
C1427       C  0.69271704  0.25949717  0.45936336     0.03200
C1428       C  0.72881302  0.24394542  0.45753255    -0.13000
C1429       C  0.75138051  0.23856307  0.47312139     0.00700
C1430       C  0.73559169  0.24719334  0.49037732    -0.11500
C1431       C  0.70376259  0.26879686  0.49215847     0.03200
C1432       C  0.68144751  0.27424667  0.47661167    -0.10900
H1433       H  0.73877409  0.23523548  0.44411004     0.08800
H1434       H  0.75043627  0.24216915  0.50294776     0.06300
H1435       H  0.65556190  0.28915757  0.47796096     0.06100
C1436       C  0.85294932  0.25136826  0.45996063     0.03200
C1437       C  0.81501583  0.24231781  0.45709202    -0.13000
C1438       C  0.79282866  0.23098602  0.47210981     0.00700
C1439       C  0.81203487  0.22283442  0.48846150    -0.11500
C1440       C  0.84375336  0.24335965  0.49280697     0.03200
C1441       C  0.86565984  0.25595470  0.47820025    -0.10900
H1442       H  0.80313974  0.24470159  0.44348050     0.08800
H1443       H  0.79763281  0.20983722  0.49973913     0.06300
H1444       H  0.89200047  0.26917258  0.48099737     0.06100
C1445       C  0.85122840  0.01815057  0.46147970     0.03200
C1446       C  0.81519139  0.03378333  0.45983837    -0.13000
C1447       C  0.79302800  0.04038290  0.47560123     0.00700
C1448       C  0.80923595  0.03274252  0.49277500    -0.11500
C1449       C  0.84097577  0.01099443  0.49437402     0.03200
C1450       C  0.86285356  0.00450336  0.47869296    -0.10900
H1451       H  0.80502647  0.04168660  0.44643818     0.08800
H1452       H  0.79468603  0.03845167  0.50546203     0.06300
H1453       H  0.88858445  0.98935266  0.47987859     0.06100
C1454       C  0.69071868  0.02869538  0.46332208     0.03200
C1455       C  0.67833768  0.02509028  0.48173421    -0.13000
C1456       C  0.70087899  0.03777988  0.49615581     0.00700
C1457       C  0.73282557  0.05761471  0.49141287    -0.11500
C1458       C  0.75158268  0.04836147  0.47492719     0.03200
C1459       C  0.72884871  0.03680369  0.46012384    -0.10900
H1460       H  0.65185811  0.01238809  0.48480132     0.08800
H1461       H  0.74767098  0.07091442  0.50250386     0.06300
H1462       H  0.74045749  0.03349501  0.44643288     0.06100
In1463     In  0.61490534  0.23185972  0.41977251     1.36900
C1464       C  0.54212416  0.24261085  0.42561664     0.77600
O1465       O  0.60992472  0.26477060  0.39361689    -0.60800
O1466       O  0.64594377  0.21897719  0.39370581    -0.51700
C1467       C  0.66577717  0.25592721  0.44397952     0.70300
O1468       O  0.63180424  0.26423671  0.44532255    -0.46600
C1469       C  0.61301167  0.15996638  0.42162588     0.75000
O1470       O  0.56162322  0.26581148  0.41716958    -0.58400
O1471       O  0.60382889  0.17702697  0.40740269    -0.48500
O1472       O  0.56045422  0.21692355  0.43241946    -0.54900
C1473       C  0.62969946  0.24276696  0.38433425     0.85200
O1474       O  0.67403142  0.24019669  0.42908295    -0.56800
O1475       O  0.62272925  0.17958100  0.43506937    -0.60100
In1476     In  0.61119725  0.22098290  0.32983443     1.36900
C1477       C  0.61910075  0.14931639  0.32533157     0.77600
O1478       O  0.64643701  0.21614637  0.35523697    -0.60800
O1479       O  0.60467834  0.25717943  0.35482291    -0.51700
C1480       C  0.63431075  0.26532628  0.30327771     0.70300
O1481       O  0.62044639  0.23458056  0.30001097    -0.46600
C1482       C  0.53766260  0.22628327  0.33110147     0.75000
O1483       O  0.64661720  0.16880228  0.32988159    -0.58400
O1484       O  0.55622114  0.21179961  0.34375043    -0.48500
O1485       O  0.59026942  0.16683433  0.32147967    -0.54900
C1486       C  0.62836544  0.24005964  0.36414630     0.85200
O1487       O  0.64219229  0.27074002  0.31997743    -0.56800
O1488       O  0.55667373  0.23941666  0.31817896    -0.60100
In1489     In  0.61282417  0.04844758  0.42299263     1.36900
C1490       C  0.53991170  0.03680102  0.42821502     0.77600
O1491       O  0.62259872  0.10299144  0.43627545    -0.60800
O1492       O  0.60188073  0.10130214  0.40893126    -0.51700
C1493       C  0.66347255  0.02845749  0.44800639     0.70300
O1494       O  0.62898261  0.02426532  0.45045971    -0.46600
C1495       C  0.62705014  0.03057007  0.38830645     0.75000
O1496       O  0.56067148  0.01284238  0.42097670    -0.58400
O1497       O  0.64275748  0.05692453  0.39625280    -0.48500
O1498       O  0.55699945  0.06423782  0.43424607    -0.54900
C1499       C  0.61243150  0.12049118  0.42234202     0.85200
O1500       O  0.67205217  0.03752240  0.43187319    -0.56800
O1501       O  0.60850773  0.01005002  0.39877957    -0.60100
In1502     In  0.60482756  0.03951555  0.33352159     1.36900
C1503       C  0.61730687  0.10950605  0.32637727     0.77600
O1504       O  0.55039237  0.02911667  0.31955524    -0.60800
O1505       O  0.54970392  0.04996535  0.34696313    -0.51700
C1506       C  0.62554880  0.98851727  0.30934386     0.70300
O1507       O  0.62534508  0.02193213  0.30570504    -0.46600
C1508       C  0.62443999  0.02859610  0.36820187     0.75000
O1509       O  0.64380834  0.08873174  0.33084719    -0.58400
O1510       O  0.59944686  0.01023995  0.36034626    -0.48500
O1511       O  0.58652203  0.09386337  0.32438100    -0.54900
C1512       C  0.53131954  0.04012281  0.33305970     0.85200
O1513       O  0.61965825  0.98144908  0.32602133    -0.56800
O1514       O  0.64252942  0.04949872  0.35775126    -0.60100
In1515     In  0.93470315  0.22668632  0.32973971     1.36900
C1516       C  0.92201139  0.15514990  0.32376555     0.77600
O1517       O  0.99001667  0.23928624  0.31615437    -0.60800
O1518       O  0.98975608  0.21186497  0.34175820    -0.51700
C1519       C  0.90876518  0.27736264  0.30633242     0.70300
O1520       O  0.90398858  0.24367952  0.30386028    -0.46600
C1521       C  0.91921592  0.24129284  0.36494172     0.75000
O1522       O  0.89876405  0.17540296  0.33201670    -0.58400
O1523       O  0.94550306  0.25628512  0.35640273    -0.48500
O1524       O  0.94914827  0.17212638  0.31692617    -0.54900
C1525       C  0.00875853  0.22514569  0.32887532     0.85200
O1526       O  0.92304654  0.28514321  0.32163115    -0.56800
O1527       O  0.89806412  0.22208327  0.35500075    -0.60100
In1528     In  0.93039561  0.22651899  0.42031296     1.36900
C1529       C  0.00299157  0.23656552  0.42627990     0.77600
O1530       O  0.91865793  0.17393797  0.43495010    -0.60800
O1531       O  0.94022395  0.17188179  0.40767296    -0.51700
C1532       C  0.88001881  0.25048338  0.44457685     0.70300
O1533       O  0.91447842  0.25481333  0.44690537    -0.46600
C1534       C  0.91768421  0.24107235  0.38513581     0.75000
O1535       O  0.98338770  0.26066334  0.41866318    -0.58400
O1536       O  0.90024626  0.21681902  0.39373022    -0.48500
O1537       O  0.98488344  0.20986502  0.43225424    -0.54900
C1538       C  0.92903860  0.15456956  0.42149750     0.85200
O1539       O  0.87140248  0.23967094  0.42868774    -0.56800
O1540       O  0.93806282  0.26114947  0.39506497    -0.60100
In1541     In  0.92774084  0.04303839  0.42103847     1.36900
C1542       C  0.00011089  0.03103825  0.42677279     0.77600
O1543       O  0.93543442  0.00936792  0.39516380    -0.60800
O1544       O  0.89476663  0.05121848  0.39507353    -0.51700
C1545       C  0.87792664  0.02046160  0.44592636     0.70300
O1546       O  0.91230073  0.01456535  0.44759058    -0.46600
C1547       C  0.92855514  0.11507059  0.42169177     0.75000
O1548       O  0.97953148  0.00681160  0.41969613    -0.58400
O1549       O  0.93844336  0.09657460  0.40788154    -0.48500
O1550       O  0.98303822  0.05901281  0.43225782    -0.54900
C1551       C  0.91324324  0.02838610  0.38582445     0.85200
O1552       O  0.86894435  0.03280488  0.43047946    -0.56800
O1553       O  0.91861567  0.09685606  0.43547817    -0.60100
In1554     In  0.92879627  0.04271090  0.33026169     1.36900
C1555       C  0.92078722  0.11474955  0.32397129     0.77600
O1556       O  0.89317180  0.04886373  0.35603771    -0.60800
O1557       O  0.93926171  0.01293269  0.35661559    -0.51700
C1558       C  0.90133859  0.99133729  0.30722871     0.70300
O1559       O  0.89387804  0.02472848  0.30563645    -0.46600
C1560       C  0.00222594  0.04038847  0.32904763     0.75000
O1561       O  0.89631357  0.09642501  0.33234213    -0.58400
O1562       O  0.98436196  0.05213468  0.34281226    -0.48500
O1563       O  0.94687237  0.09576474  0.31735375    -0.54900
C1564       C  0.91391826  0.02871342  0.36558482     0.85200
O1565       O  0.91955153  0.98419994  0.32145368    -0.56800
O1566       O  0.98261778  0.03057188  0.31552493    -0.60100
C1567       C  0.65264222  0.45817307  0.29108377     0.03200
C1568       C  0.65418445  0.42131892  0.29650495    -0.13000
C1569       C  0.66347098  0.39420747  0.28357949     0.00700
C1570       C  0.67639748  0.40549373  0.26625518    -0.11500
C1571       C  0.66207618  0.43805781  0.25898994     0.03200
C1572       C  0.65372607  0.46596443  0.27193523    -0.10900
H1573       H  0.64516758  0.41348653  0.31016972     0.08800
H1574       H  0.68678690  0.38462782  0.25698003     0.06300
H1575       H  0.64467509  0.49236900  0.26724080     0.06100
C1576       C  0.63494690  0.29459379  0.28942529     0.03200
C1577       C  0.61231868  0.29130810  0.27346812    -0.13000
C1578       C  0.60196248  0.32239177  0.26349641     0.00700
C1579       C  0.61414627  0.35615244  0.27044327    -0.11500
C1580       C  0.64273847  0.35904410  0.28337958     0.03200
C1581       C  0.65227902  0.32823983  0.29352888    -0.10900
H1582       H  0.60113125  0.26508299  0.26948623     0.08800
H1583       H  0.60497914  0.38123159  0.26444152     0.06300
H1584       H  0.67197950  0.33058659  0.30473386     0.06100
C1585       C  0.84352741  0.46352342  0.21354667     0.03200
C1586       C  0.83675514  0.42573917  0.21041284    -0.13000
C1587       C  0.82923614  0.40267905  0.22556048     0.00700
C1588       C  0.82254984  0.42041117  0.24258457    -0.11500
C1589       C  0.84218377  0.45252010  0.24651131     0.03200
C1590       C  0.85039327  0.47546400  0.23176053    -0.10900
H1591       H  0.83800089  0.41464136  0.19656587     0.08800
H1592       H  0.81220916  0.40512754  0.25419786     0.06300
H1593       H  0.86271209  0.50186523  0.23439323     0.06100
C1594       C  0.85718547  0.30395585  0.21123955     0.03200
C1595       C  0.87733040  0.29449720  0.22722612    -0.13000
C1596       C  0.87628913  0.31756642  0.24262409     0.00700
C1597       C  0.85302120  0.34792653  0.24225529    -0.11500
C1598       C  0.83925525  0.36238471  0.22573820     0.03200
C1599       C  0.84083250  0.33930750  0.21005577    -0.10900
H1600       H  0.89314749  0.26944783  0.22773957     0.08800
H1601       H  0.85041474  0.36251746  0.25508351     0.06300
H1602       H  0.82824587  0.34807895  0.19731583     0.06100
C1603       C  0.60938209  0.46503597  0.21467468     0.03200
C1604       C  0.63280255  0.46817461  0.23038492    -0.13000
C1605       C  0.64418515  0.43695574  0.24003124     0.00700
C1606       C  0.63260208  0.40314894  0.23279276    -0.11500
C1607       C  0.60355070  0.40013738  0.22009000     0.03200
C1608       C  0.59266033  0.43117120  0.21045896    -0.10900
H1609       H  0.64352370  0.49450939  0.23449017     0.08800
H1610       H  0.64224970  0.37800630  0.23855154     0.06300
H1611       H  0.57232878  0.42885132  0.19953506     0.06100
C1612       C  0.59523533  0.30072120  0.21266495     0.03200
C1613       C  0.59324041  0.33749616  0.20709490    -0.13000
C1614       C  0.58325468  0.36470331  0.21986882     0.00700
C1615       C  0.57009312  0.35349722  0.23715626    -0.11500
C1616       C  0.58436500  0.32103863  0.24454698     0.03200
C1617       C  0.59340846  0.29311470  0.23178222    -0.10900
H1618       H  0.60271986  0.34526051  0.19349548     0.08800
H1619       H  0.55946884  0.37435085  0.24638358     0.06300
H1620       H  0.60267633  0.26690363  0.23665132     0.06100
C1621       C  0.89540441  0.24988728  0.04302540     0.03200
C1622       C  0.93135584  0.23414521  0.04452328    -0.13000
C1623       C  0.95348253  0.22799145  0.02873787     0.00700
C1624       C  0.93721653  0.23580675  0.01160630    -0.11500
C1625       C  0.90531072  0.25742089  0.01015189     0.03200
C1626       C  0.88363723  0.26381592  0.02591367    -0.10900
H1627       H  0.94157387  0.22597942  0.05787113     0.08800
H1628       H  0.95186947  0.23045385  0.99890267     0.06300
H1629       H  0.85790373  0.27899953  0.02484308     0.06100
C1630       C  0.55556850  0.24631456  0.04383798     0.03200
C1631       C  0.56828510  0.25055832  0.02547210    -0.13000
C1632       C  0.54638302  0.23762089  0.01081312     0.00700
C1633       C  0.51484745  0.21692836  0.01536645    -0.11500
C1634       C  0.49543962  0.22542726  0.03181154     0.03200
C1635       C  0.51753218  0.23737714  0.04676784    -0.10900
H1636       H  0.59456183  0.26384418  0.02263608     0.08800
H1637       H  0.50067857  0.20329841  0.00416299     0.06300
H1638       H  0.50551614  0.24013842  0.06040414     0.06100
C1639       C  0.89688679  0.01460696  0.04346241     0.03200
C1640       C  0.93292415  0.03005707  0.04516408    -0.13000
C1641       C  0.95548371  0.03519380  0.02951338     0.00700
C1642       C  0.93970301  0.02649812  0.01235176    -0.11500
C1643       C  0.90783524  0.00491096  0.01084983     0.03200
C1644       C  0.88553737  0.99970253  0.02641069    -0.10900
H1645       H  0.94285563  0.03889203  0.05852870     0.08800
H1646       H  0.95459832  0.03137133  0.99971542     0.06300
H1647       H  0.85962306  0.98484755  0.02521265     0.06100
C1648       C  0.55732862  0.02235558  0.04222058     0.03200
C1649       C  0.56974773  0.01942820  0.02376673    -0.13000
C1650       C  0.54744350  0.03293356  0.00955780     0.00700
C1651       C  0.51583647  0.05326119  0.01463821    -0.11500
C1652       C  0.49705530  0.04424596  0.03111037     0.03200
C1653       C  0.51952064  0.03151142  0.04562177    -0.10900
H1654       H  0.59592796  0.00620221  0.02048635     0.08800
H1655       H  0.50100604  0.06685896  0.00373535     0.06300
H1656       H  0.50781351  0.02796248  0.05925049     0.06100
In1657     In  0.63578642  0.22300870  0.17530396     1.36900
C1658       C  0.62684411  0.15113068  0.17984646     0.77600
O1659       O  0.60063248  0.21643915  0.14973822    -0.60800
O1660       O  0.64571897  0.25376484  0.14903064    -0.51700
C1661       C  0.60656454  0.27213258  0.19913733     0.70300
O1662       O  0.61046570  0.23905771  0.20310242    -0.46600
C1663       C  0.70959694  0.22514915  0.17599707     0.75000
O1664       O  0.60116724  0.17052615  0.17322203    -0.58400
O1665       O  0.69126780  0.21414219  0.16234594    -0.48500
O1666       O  0.65417313  0.16894589  0.18579419    -0.54900
C1667       C  0.62066877  0.23736918  0.14014773     0.85200
O1668       O  0.61448718  0.27912321  0.18265719    -0.56800
O1669       O  0.69027823  0.23608364  0.18948491    -0.60100
In1670     In  0.63253049  0.22418401  0.08429322     1.36900
C1671       C  0.70518219  0.23470881  0.07794378     0.77600
O1672       O  0.63939577  0.25851811  0.11016689    -0.60800
O1673       O  0.60206179  0.21390784  0.11087719    -0.51700
C1674       C  0.58245254  0.24629755  0.05936967     0.70300
O1675       O  0.61700659  0.25041314  0.05715483    -0.46600
C1676       C  0.63184795  0.15224995  0.08332886     0.75000
O1677       O  0.68509667  0.25944934  0.08503091    -0.58400
O1678       O  0.64469737  0.17017734  0.09667254    -0.48500
O1679       O  0.68750185  0.20703899  0.07267989    -0.54900
C1680       C  0.61927711  0.23790549  0.11987336     0.85200
O1681       O  0.57352913  0.23673375  0.07539775    -0.56800
O1682       O  0.61961737  0.17097267  0.07023979    -0.60100
In1683     In  0.63353261  0.04091920  0.08302005     1.36900
C1684       C  0.70641239  0.03121072  0.07766774     0.77600
O1685       O  0.62029785  0.09427120  0.06966530    -0.60800
O1686       O  0.64412375  0.09471272  0.09640054    -0.51700
C1687       C  0.58432938  0.02058216  0.05755542     0.70300
O1688       O  0.61896799  0.01794485  0.05498259    -0.46600
C1689       C  0.62004680  0.02468560  0.11787674     0.75000
O1690       O  0.68590830  0.00529133  0.08292202    -0.58400
O1691       O  0.60198264  0.04866770  0.10947411    -0.48500
O1692       O  0.68911952  0.05972601  0.07358129    -0.54900
C1693       C  0.63184296  0.11281366  0.08311819     0.85200
O1694       O  0.57522652  0.02725474  0.07399754    -0.56800
O1695       O  0.64072692  0.00506727  0.10777100    -0.60100
In1696     In  0.63997446  0.03958144  0.17275703     1.36900
C1697       C  0.62833707  0.11099847  0.17894552     0.77600
O1698       O  0.69405989  0.02855649  0.18695773    -0.60800
O1699       O  0.69512238  0.04788400  0.15941085    -0.51700
C1700       C  0.61837903  0.98943870  0.19690993     0.70300
O1701       O  0.62069120  0.02276559  0.20083989    -0.46600
C1702       C  0.62247299  0.02479252  0.13802269     0.75000
O1703       O  0.60228822  0.09039670  0.17357196    -0.58400
O1704       O  0.64916004  0.00967089  0.14614271    -0.48500
O1705       O  0.65827749  0.09468315  0.18218680    -0.54900
C1706       C  0.71329805  0.03822745  0.17332622     0.85200
O1707       O  0.62228812  0.98229464  0.18004948    -0.56800
O1708       O  0.60205712  0.04459861  0.14820375    -0.60100
In1709     In  0.81897347  0.22446223  0.08326876     1.36900
C1710       C  0.74622457  0.23479552  0.07769207     0.77600
O1711       O  0.82664587  0.17107992  0.06849297    -0.60800
O1712       O  0.81005717  0.17089179  0.09665242    -0.51700
C1713       C  0.86898996  0.24720711  0.05863572     0.70300
O1714       O  0.83512457  0.25600013  0.05766815    -0.46600
C1715       C  0.83488653  0.23940150  0.11824768     0.75000
O1716       O  0.76633721  0.25948602  0.08470169    -0.58400
O1717       O  0.85370625  0.21734168  0.10871912    -0.48500
O1718       O  0.76391520  0.20730079  0.07206291    -0.54900
C1719       C  0.81863181  0.15267467  0.08252044     0.85200
O1720       O  0.87756291  0.23167525  0.07334831    -0.56800
O1721       O  0.81122531  0.25742143  0.10930310    -0.60100
In1722     In  0.82368641  0.22419098  0.17379451     1.36900
C1723       C  0.83574805  0.15251280  0.17905035     0.77600
O1724       O  0.76992549  0.23456717  0.18924661    -0.60800
O1725       O  0.76788144  0.21339575  0.16191585    -0.51700
C1726       C  0.85003073  0.27592586  0.19681061     0.70300
O1727       O  0.85695598  0.24254912  0.19884309    -0.46600
C1728       C  0.83557003  0.23909809  0.13843490     0.75000
O1729       O  0.85936012  0.17241745  0.17101394    -0.58400
O1730       O  0.80954239  0.25296526  0.14771711    -0.48500
O1731       O  0.80858232  0.16980158  0.18578112    -0.54900
C1732       C  0.75011185  0.22450663  0.17583336     0.85200
O1733       O  0.83321445  0.28283927  0.18213244    -0.56800
O1734       O  0.85846710  0.22063616  0.14766927    -0.60100
In1735     In  0.82696971  0.04023287  0.17306074     1.36900
C1736       C  0.83644382  0.11215254  0.17891035     0.77600
O1737       O  0.86146896  0.04674726  0.14724659    -0.60800
O1738       O  0.81712324  0.00850971  0.14718313    -0.51700
C1739       C  0.85033283  0.98946963  0.19669539     0.70300
O1740       O  0.85764578  0.02281159  0.19880639    -0.46600
C1741       C  0.75359124  0.03908931  0.17357093     0.75000
O1742       O  0.86117372  0.09289506  0.17106933    -0.58400
O1743       O  0.77210409  0.04824533  0.15964073    -0.48500
O1744       O  0.80950502  0.09414021  0.18519364    -0.54900
C1745       C  0.84079895  0.02574824  0.13794860     0.85200
O1746       O  0.83644281  0.98184460  0.18131944    -0.56800
O1747       O  0.77247601  0.03135954  0.18759362    -0.60100
In1748     In  0.82019617  0.04158824  0.08339862     1.36900
C1749       C  0.74736461  0.03119224  0.07792956     0.77600
O1750       O  0.81727862  0.00639500  0.10865076    -0.60800
O1751       O  0.85378787  0.05177417  0.10884253    -0.51700
C1752       C  0.87008751  0.01848447  0.05877816     0.70300
O1753       O  0.83617698  0.00998980  0.05760815    -0.46600
C1754       C  0.81903217  0.11323787  0.08258373     0.75000
O1755       O  0.76736010  0.00674170  0.08503195    -0.58400
O1756       O  0.81042287  0.09548192  0.09673647    -0.48500
O1757       O  0.76506774  0.05856913  0.07251973    -0.54900
C1758       C  0.83884742  0.02664358  0.11784456     0.85200
O1759       O  0.87854614  0.03454662  0.07347535    -0.56800
O1760       O  0.82776459  0.09438922  0.06863320    -0.60100
C1761       C  0.89228565  0.27067654  0.95981788     0.03200
C1762       C  0.87980636  0.26592797  0.97814507    -0.13000
C1763       C  0.90207521  0.27830643  0.99275153     0.00700
C1764       C  0.93372485  0.29880042  0.98829825    -0.11500
C1765       C  0.95278286  0.29046513  0.97177425     0.03200
C1766       C  0.93035405  0.27929706  0.95680877    -0.10900
H1767       H  0.85340928  0.25287638  0.98099219     0.08800
H1768       H  0.94818809  0.31197142  0.99955135     0.06300
H1769       H  0.94213146  0.27683978  0.94310908     0.06100
C1770       C  0.55374619  0.26744471  0.96037566     0.03200
C1771       C  0.51727992  0.28203526  0.95879708    -0.13000
C1772       C  0.49462025  0.28710412  0.97450657     0.00700
C1773       C  0.51062674  0.27912582  0.99166512    -0.11500
C1774       C  0.54301040  0.25829840  0.99323158     0.03200
C1775       C  0.56549806  0.25329689  0.97753306    -0.10900
H1776       H  0.50705865  0.29026836  0.94545953     0.08800
H1777       H  0.49559951  0.28397513  0.00430427     0.06300
H1778       H  0.59171821  0.23895941  0.97865644     0.06100
C1779       C  0.89410043  0.49444738  0.96152148     0.03200
C1780       C  0.93187613  0.48501997  0.95830383    -0.13000
C1781       C  0.95412025  0.47269282  0.97300079     0.00700
C1782       C  0.93512610  0.46401611  0.98943207    -0.11500
C1783       C  0.90339395  0.48439228  0.99421873     0.03200
C1784       C  0.88141148  0.49773719  0.97988555    -0.10900
H1785       H  0.94373835  0.48826240  0.94468925     0.08800
H1786       H  0.94981288  0.45074953  0.00048817     0.06300
H1787       H  0.85524782  0.51113645  0.98301287     0.06100
C1788       C  0.55494891  0.50405010  0.95869870     0.03200
C1789       C  0.56681264  0.51638247  0.97622535    -0.13000
C1790       C  0.54529736  0.50854968  0.99181346     0.00700
C1791       C  0.51349860  0.48700928  0.98974510    -0.11500
C1792       C  0.49696437  0.48083689  0.97243475     0.03200
C1793       C  0.51891049  0.48856981  0.95678088    -0.10900
H1794       H  0.59255116  0.53141710  0.97773217     0.08800
H1795       H  0.49906632  0.48055040  0.00232344     0.06300
H1796       H  0.50860784  0.48160826  0.94321473     0.06100
C1797       C  0.59169541  0.21290182  0.79108621     0.03200
C1798       C  0.59052970  0.17621220  0.79668279    -0.13000
C1799       C  0.58205064  0.14879320  0.78388388     0.00700
C1800       C  0.56900801  0.15950738  0.76651646    -0.11500
C1801       C  0.58217368  0.19250545  0.75915768     0.03200
C1802       C  0.59004421  0.22056816  0.77197615    -0.10900
H1803       H  0.59993073  0.16871914  0.81030423     0.08800
H1804       H  0.55958857  0.13825856  0.75725122     0.06300
H1805       H  0.59857824  0.24705042  0.76714524     0.06100
C1806       C  0.61432794  0.05051980  0.78988143     0.03200
C1807       C  0.63810543  0.04821095  0.77419815    -0.13000
C1808       C  0.64767601  0.07970704  0.76431528     0.00700
C1809       C  0.63367182  0.11292555  0.77113941    -0.11500
C1810       C  0.60429776  0.11457643  0.78380851     0.03200
C1811       C  0.59558829  0.08346699  0.79390331    -0.10900
H1812       H  0.65046997  0.02241328  0.77028304     0.08800
H1813       H  0.64183600  0.13833954  0.76511893     0.06300
H1814       H  0.57505247  0.08494993  0.80485380     0.06100
C1815       C  0.85565815  0.05707394  0.79353859     0.03200
C1816       C  0.87706062  0.04710607  0.77790719    -0.13000
C1817       C  0.87687256  0.06940350  0.76243752     0.00700
C1818       C  0.85353957  0.09964857  0.76232393    -0.11500
C1819       C  0.83874337  0.11484854  0.77859321     0.03200
C1820       C  0.83900502  0.09239922  0.79436105    -0.10900
H1821       H  0.89292757  0.02205425  0.77762199     0.08800
H1822       H  0.85178854  0.11360783  0.74940124     0.06300
H1823       H  0.82559437  0.10175923  0.80691740     0.06100
C1824       C  0.84671930  0.21571467  0.79063187     0.03200
C1825       C  0.85470222  0.22688663  0.77249940    -0.13000
C1826       C  0.84588646  0.20398992  0.75768115     0.00700
C1827       C  0.82489722  0.17267605  0.76146310    -0.11500
C1828       C  0.82992370  0.15533508  0.77857938     0.03200
C1829       C  0.83793362  0.17849612  0.79372671    -0.10900
H1830       H  0.86822562  0.25270157  0.76997326     0.08800
H1831       H  0.81464644  0.15728542  0.74977699     0.06300
H1832       H  0.83809874  0.16781895  0.80757836     0.06100
In1833     In  0.63124802  0.47813238  0.91835984     1.36900
C1834       C  0.70350673  0.48922979  0.92491351     0.77600
O1835       O  0.61603705  0.42543706  0.93197798    -0.60800
O1836       O  0.64591631  0.42356580  0.90668376    -0.51700
C1837       C  0.58162207  0.50222436  0.94309159     0.70300
O1838       O  0.61606754  0.50756768  0.94491048    -0.46600
C1839       C  0.61654817  0.49016964  0.88304327     0.75000
O1840       O  0.68420561  0.51246074  0.91644243    -0.58400
O1841       O  0.60012954  0.46630250  0.89231826    -0.48500
O1842       O  0.68517058  0.46303325  0.93131964    -0.54900
C1843       C  0.63044653  0.40615197  0.91943999     0.85200
O1844       O  0.57258988  0.49031408  0.92745897    -0.56800
O1845       O  0.63689663  0.51141557  0.89235289    -0.60100
In1846     In  0.63211247  0.47171722  0.82796319     1.36900
C1847       C  0.62031887  0.40083187  0.82213191     0.77600
O1848       O  0.68724532  0.48826754  0.81594847    -0.60800
O1849       O  0.68675735  0.46119171  0.84165650    -0.51700
C1850       C  0.61408543  0.02052516  0.80330533     0.70300
O1851       O  0.62348418  0.48857828  0.79861128    -0.46600
C1852       C  0.61695054  0.48866071  0.86282638     0.75000
O1853       O  0.59405630  0.42147090  0.82730118    -0.58400
O1854       O  0.64047915  0.50598710  0.85342946    -0.48500
O1855       O  0.65019661  0.41698666  0.81856298    -0.54900
C1856       C  0.70577276  0.47545553  0.82904951     0.85200
O1857       O  0.60708727  0.02531932  0.82018740    -0.56800
O1858       O  0.59793899  0.46577007  0.85380439    -0.60100
In1859     In  0.81973391  0.47712544  0.83075841     1.36900
C1860       C  0.82934230  0.40543374  0.82410573     0.77600
O1861       O  0.85443244  0.47003267  0.85638891    -0.60800
O1862       O  0.81048323  0.50848398  0.85707791    -0.51700
C1863       C  0.84788392  0.02949968  0.80792069     0.70300
O1864       O  0.85555397  0.49532652  0.80654685    -0.46600
C1865       C  0.74620286  0.47647166  0.82956157     0.75000
O1866       O  0.85437056  0.42459587  0.83160991    -0.58400
O1867       O  0.76417783  0.46641889  0.84347513    -0.48500
O1868       O  0.80202389  0.42349069  0.81838341    -0.54900
C1869       C  0.83467250  0.49141411  0.86597850     0.85200
O1870       O  0.82674629  0.03576348  0.82135786    -0.56800
O1871       O  0.76577350  0.48665293  0.81609204    -0.60100
In1872     In  0.81739081  0.47693723  0.92080371     1.36900
C1873       C  0.74449614  0.48892604  0.92549983     0.77600
O1874       O  0.81358744  0.00969525  0.89567501    -0.60800
O1875       O  0.84939032  0.46568747  0.89491343    -0.51700
C1876       C  0.86729244  0.49638953  0.94613904     0.70300
O1877       O  0.83278686  0.50043477  0.94860843    -0.46600
C1878       C  0.81624397  0.40520883  0.92077626     0.75000
O1879       O  0.76536233  0.51271705  0.91836911    -0.58400
O1880       O  0.80662765  0.42352970  0.90704339    -0.48500
O1881       O  0.76146161  0.46176459  0.93166699    -0.54900
C1882       C  0.83465420  0.49129520  0.88615691     0.85200
O1883       O  0.87620787  0.48865942  0.92981021    -0.56800
O1884       O  0.82604638  0.42345351  0.93466262    -0.60100
In1885     In  0.81540965  0.29413043  0.91963408     1.36900
C1886       C  0.74234846  0.28417476  0.92484979     0.77600
O1887       O  0.82482085  0.34715172  0.93427315    -0.60800
O1888       O  0.80632949  0.34797904  0.90648171    -0.51700
C1889       C  0.86527346  0.27166563  0.94443778     0.70300
O1890       O  0.83075778  0.26700263  0.94656688    -0.46600
C1891       C  0.83148209  0.27940119  0.88466564     0.75000
O1892       O  0.76266853  0.25932034  0.91804083    -0.58400
O1893       O  0.84808185  0.30364765  0.89376455    -0.48500
O1894       O  0.75984556  0.31181219  0.93028134    -0.54900
C1895       C  0.81587688  0.36584688  0.92052815     0.85200
O1896       O  0.87417269  0.28247796  0.92865021    -0.56800
O1897       O  0.81012331  0.25935498  0.89402744    -0.60100
In1898     In  0.81791866  0.29347984  0.82939110     1.36900
C1899       C  0.82878139  0.36510923  0.82389601     0.77600
O1900       O  0.76416890  0.27875362  0.81527613    -0.60800
O1901       O  0.76197970  0.30425384  0.84162966    -0.51700
C1902       C  0.84356423  0.24346676  0.80547020     0.70300
O1903       O  0.84504019  0.27714460  0.80240162    -0.46600
C1904       C  0.83178136  0.27925303  0.86448654     0.75000
O1905       O  0.85369414  0.34517637  0.83083610    -0.58400
O1906       O  0.80714627  0.26285891  0.85541055    -0.48500
O1907       O  0.80066146  0.34788346  0.81832339    -0.54900
C1908       C  0.74431114  0.29054987  0.82836111     0.85200
O1909       O  0.83417707  0.23583360  0.82166777    -0.56800
O1910       O  0.85255899  0.29979965  0.85509750    -0.60100
In1911     In  0.63007334  0.29040352  0.82848971     1.36900
C1912       C  0.61945449  0.36089322  0.82211472     0.77600
O1913       O  0.59476671  0.29854610  0.85400844    -0.60800
O1914       O  0.63957739  0.26085252  0.85504317    -0.51700
C1915       C  0.60218989  0.24145232  0.80463646     0.70300
O1916       O  0.60723664  0.27423865  0.80048063    -0.46600
C1917       C  0.70386020  0.28927466  0.82829812     0.75000
O1918       O  0.59398219  0.34179223  0.82921582    -0.58400
O1919       O  0.68497041  0.30332507  0.84110944    -0.48500
O1920       O  0.64746560  0.34323328  0.81673958    -0.54900
C1921       C  0.61475414  0.27807914  0.86379427     0.85200
O1922       O  0.60828973  0.23467639  0.82131741    -0.56800
O1923       O  0.68514401  0.27487955  0.81553655    -0.60100
In1924     In  0.62869611  0.29454775  0.91915561     1.36900
C1925       C  0.70134280  0.28404178  0.92481931     0.77600
O1926       O  0.63358636  0.25847685  0.89385687    -0.60800
O1927       O  0.59765533  0.30419487  0.89278011    -0.51700
C1928       C  0.58019063  0.27097398  0.94468517     0.70300
O1929       O  0.61481212  0.26634309  0.94613600    -0.46600
C1930       C  0.62947438  0.36663388  0.91951806     0.75000
O1931       O  0.68158008  0.26018532  0.91691781    -0.58400
O1932       O  0.64331730  0.34795726  0.90661937    -0.48500
O1933       O  0.68334315  0.31068201  0.93122358    -0.54900
C1934       C  0.61380144  0.27901587  0.88404109     0.85200
O1935       O  0.57045604  0.28293810  0.92924415    -0.56800
O1936       O  0.61505727  0.34857993  0.93236907    -0.60100
C1937       C  0.69214877  0.27944141  0.54280858     0.00000
C1938       C  0.67905661  0.27602335  0.52451327    -0.13000
C1939       C  0.70062967  0.28944784  0.50988568     0.00700
C1940       C  0.73235321  0.30993151  0.51441425    -0.11500
C1941       C  0.75184088  0.30125297  0.53063995     0.03200
C1942       C  0.73002252  0.28885474  0.54558339    -0.10900
H1943       H  0.65286164  0.26258187  0.52167229     0.08800
H1944       H  0.74665853  0.32336318  0.50323782     0.06300
H1945       H  0.74225941  0.28564843  0.55906891     0.06100
C1946       C  0.85208838  0.27258544  0.54295647     0.03200
C1947       C  0.86322605  0.25838001  0.52567312    -0.13000
C1948       C  0.84093534  0.26441548  0.51028021     0.00700
C1949       C  0.80919373  0.28616625  0.51215394    -0.11500
C1950       C  0.79342225  0.29424016  0.52948338     0.03200
C1951       C  0.81612043  0.28836292  0.54498687    -0.10900
H1952       H  0.88888875  0.24313222  0.52419586     0.08800
H1953       H  0.79421868  0.29134299  0.49963040     0.06300
H1954       H  0.80626552  0.29658761  0.55850465     0.06100
C1955       C  0.69158745  0.50345523  0.54649513     0.03200
C1956       C  0.67902233  0.51452408  0.52898534    -0.13000
C1957       C  0.70059230  0.50696596  0.51333791     0.00700
C1958       C  0.73359712  0.48714306  0.51537527    -0.11500
C1959       C  0.75053948  0.48218742  0.53270519     0.03200
C1960       C  0.72826148  0.48942549  0.54837910    -0.10900
H1961       H  0.65271653  0.52859969  0.52753476     0.08800
H1962       H  0.74832804  0.48129668  0.50275367     0.06300
H1963       H  0.73894313  0.48352624  0.56194833     0.06100
C1964       C  0.85233829  0.49923359  0.54511958     0.03200
C1965       C  0.86428740  0.50378892  0.52672007    -0.13000
C1966       C  0.84243948  0.48992218  0.51233801     0.00700
C1967       C  0.81187762  0.46815084  0.51708171    -0.11500
C1968       C  0.79248107  0.47651233  0.53349851     0.03200
C1969       C  0.81464845  0.48915746  0.54833841    -0.10900
H1970       H  0.89000806  0.51787817  0.52363420     0.08800
H1971       H  0.79809840  0.45382375  0.50599051     0.06300
H1972       H  0.80302915  0.49155823  0.56206858     0.06100
C1973       C  0.90151852  0.05421679  0.71362268     0.03200
C1974       C  0.89372477  0.04319738  0.73177167    -0.13000
C1975       C  0.90279772  0.06608904  0.74651738     0.00700
C1976       C  0.92378244  0.09738322  0.74267574    -0.11500
C1977       C  0.91868164  0.11461781  0.72553596     0.03200
C1978       C  0.91069445  0.09131348  0.71043164    -0.10900
H1979       H  0.88000728  0.01751374  0.73438135     0.08800
H1980       H  0.93403823  0.11283146  0.75433989     0.06300
H1981       H  0.91045767  0.10184486  0.69655180     0.06100
C1982       C  0.89202989  0.21247844  0.71034310     0.03200
C1983       C  0.87106284  0.22269427  0.72609544    -0.13000
C1984       C  0.87177320  0.20073399  0.74169770     0.00700
C1985       C  0.89517716  0.17050827  0.74177010    -0.11500
C1986       C  0.90963274  0.15507815  0.72545774     0.03200
C1987       C  0.90880771  0.17722314  0.70958568    -0.10900
H1988       H  0.85505705  0.24766084  0.72634746     0.08800
H1989       H  0.89722120  0.15672263  0.75473135     0.06300
H1990       H  0.92194452  0.16770065  0.69698950     0.06100
C1991       C  0.63352443  0.22109981  0.71456299     0.03200
C1992       C  0.60988098  0.22348235  0.73031810    -0.13000
C1993       C  0.60021321  0.19195847  0.74020588     0.00700
C1994       C  0.61393817  0.15869285  0.73329182    -0.11500
C1995       C  0.64333284  0.15694910  0.72064956     0.03200
C1996       C  0.65224352  0.18808865  0.71059591    -0.10900
H1997       H  0.59766672  0.24933271  0.73426055     0.08800
H1998       H  0.60567203  0.13326427  0.73926669     0.06300
H1999       H  0.67276210  0.18652940  0.69964111     0.06100
C2000       C  0.65584373  0.05830272  0.71360183     0.03200
C2001       C  0.65811635  0.05076832  0.73268919    -0.13000
C2002       C  0.66582280  0.07904145  0.74540778     0.00700
C2003       C  0.67867845  0.11206146  0.73794757    -0.11500
C2004       C  0.66537738  0.12258008  0.72060010     0.03200
C2005       C  0.65658024  0.09498704  0.70793453    -0.10900
H2006       H  0.64980127  0.02426311  0.73758768     0.08800
H2007       H  0.68812188  0.13342381  0.74714250     0.06300
H2008       H  0.64683971  0.10233146  0.69435393     0.06100
In2009     In  0.61602673  0.29692352  0.58453569     1.36900
C2010       C  0.54398024  0.28415512  0.57789098     0.77600
O2011       O  0.61011537  0.26189436  0.60996233    -0.60800
O2012       O  0.64673593  0.30697417  0.61109647    -0.51700
C2013       C  0.66573930  0.27752383  0.55858917     0.70300
O2014       O  0.63119774  0.27317410  0.55655908    -0.46600
C2015       C  0.61510150  0.36874858  0.58510980     0.75000
O2016       O  0.56458242  0.26030321  0.58511700    -0.58400
O2017       O  0.59825468  0.35002910  0.59690931    -0.48500
O2018       O  0.56104765  0.31202062  0.57248731    -0.54900
C2019       C  0.62989923  0.28259652  0.61985949     0.85200
O2020       O  0.67496417  0.28550212  0.57483931    -0.56800
O2021       O  0.63181748  0.35088808  0.57276512    -0.60100
In2022     In  0.61257087  0.29861997  0.67535497     1.36900
C2023       C  0.62514394  0.36930529  0.68201092     0.77600
O2024       O  0.64930161  0.30252846  0.65001165    -0.60800
O2025       O  0.60191150  0.26812924  0.64881178    -0.51700
C2026       C  0.63355477  0.25095737  0.70097745     0.70300
O2027       O  0.62207617  0.28239818  0.70485144    -0.46600
C2028       C  0.53909601  0.29486664  0.67459936     0.75000
O2029       O  0.65026051  0.34898843  0.67534504    -0.58400
O2030       O  0.55751100  0.31227629  0.66280912    -0.48500
O2031       O  0.59590837  0.35290908  0.68652104    -0.54900
C2032       C  0.62823071  0.28295503  0.64015179     0.85200
O2033       O  0.64003668  0.24590607  0.68405449    -0.56800
O2034       O  0.55813281  0.27905848  0.68661471    -0.60100
In2035     In  0.92974395  0.29537287  0.58292038     1.36900
C2036       C  0.00268182  0.28560963  0.57783233     0.77600
O2037       O  0.92289955  0.34872972  0.56866524    -0.60800
O2038       O  0.93989319  0.34875977  0.59672884    -0.51700
C2039       C  0.87902941  0.27479526  0.55826097     0.70300
O2040       O  0.91270748  0.26524264  0.55687066    -0.46600
C2041       C  0.91280624  0.27841020  0.61740558     0.75000
O2042       O  0.98250624  0.26058150  0.58432836    -0.58400
O2043       O  0.89611922  0.30290921  0.60873219    -0.48500
O2044       O  0.98501717  0.31280229  0.57219859    -0.54900
C2045       C  0.93179300  0.36704183  0.58271042     0.85200
O2046       O  0.87104840  0.29026491  0.57322833    -0.56800
O2047       O  0.93489671  0.25934640  0.60779023    -0.60100
In2048     In  0.92486542  0.29166817  0.67287630     1.36900
C2049       C  0.91460510  0.36313923  0.67993137     0.77600
O2050       O  0.97892802  0.28127498  0.68715361    -0.60800
O2051       O  0.98013307  0.30645794  0.66086329    -0.51700
C2052       C  0.89935709  0.23982033  0.69577456     0.70300
O2053       O  0.88901979  0.27261444  0.69689199    -0.46600
C2054       C  0.91195684  0.27724505  0.63755133     0.75000
O2055       O  0.89070186  0.34453909  0.67124206    -0.58400
O2056       O  0.93739899  0.26200878  0.64645472    -0.48500
O2057       O  0.94049844  0.34450208  0.68667418    -0.54900
C2058       C  0.99827567  0.29449158  0.67431964     0.85200
O2059       O  0.91950643  0.23318097  0.68198753    -0.56800
O2060       O  0.88987838  0.29626392  0.64719348    -0.60100
In2061     In  0.92937367  0.47496041  0.67517754     1.36900
C2062       C  0.91609826  0.40347510  0.68029586     0.77600
O2063       O  0.89519459  0.46937855  0.64916761    -0.60800
O2064       O  0.94104219  0.50567859  0.64911688    -0.51700
C2065       C  0.90557627  0.52581204  0.69926189     0.70300
O2066       O  0.90215972  0.49217443  0.70210836    -0.46600
C2067       C  0.00304552  0.47644685  0.67709785     0.75000
O2068       O  0.89204247  0.42418826  0.67320874    -0.58400
O2069       O  0.98579896  0.46391568  0.66339581    -0.48500
O2070       O  0.94447215  0.41988709  0.68616879    -0.54900
C2071       C  0.91622298  0.48986590  0.63988861     0.85200
O2072       O  0.91545750  0.03324668  0.68295745    -0.56800
O2073       O  0.98273950  0.48728075  0.69020352    -0.60100
In2074     In  0.93191322  0.47821817  0.58430320     1.36900
C2075       C  0.00462020  0.49126391  0.57905720     0.77600
O2076       O  0.93595264  0.51220525  0.61034409    -0.60800
O2077       O  0.90104370  0.46560282  0.61038465    -0.51700
C2078       C  0.88002330  0.49964878  0.56024433     0.70300
O2079       O  0.91432853  0.50481399  0.55760125    -0.46600
C2080       C  0.93278635  0.40643972  0.58286762     0.75000
O2081       O  0.98361256  0.51429196  0.58691578    -0.58400
O2082       O  0.94313569  0.42418541  0.59679714    -0.48500
O2083       O  0.98781523  0.46420812  0.57240957    -0.54900
C2084       C  0.91627448  0.49047417  0.61965493     0.85200
O2085       O  0.87224526  0.48933389  0.57625808    -0.56800
O2086       O  0.92307865  0.42529003  0.56931012    -0.60100
In2087     In  0.61534096  0.47975063  0.58700478     1.36900
C2088       C  0.54289937  0.48903749  0.58051832     0.77600
O2089       O  0.63030505  0.42697832  0.57341076    -0.60800
O2090       O  0.60004648  0.42580361  0.59866517    -0.51700
C2091       C  0.66513973  0.50198338  0.56218242     0.70300
O2092       O  0.63084740  0.50867501  0.56065895    -0.46600
C2093       C  0.63042356  0.49432901  0.62206140     0.75000
O2094       O  0.56186483  0.51338911  0.58853623    -0.58400
O2095       O  0.64591396  0.46902943  0.61317653    -0.48500
O2096       O  0.56162101  0.46268205  0.57436763    -0.54900
C2097       C  0.61522383  0.40811306  0.58574892     0.85200
O2098       O  0.67413679  0.48940351  0.57757815    -0.56800
O2099       O  0.61072364  0.51538381  0.61247711    -0.60100
In2100     In  0.61545448  0.48002850  0.67714388     1.36900
C2101       C  0.62649887  0.40927584  0.68264054     0.77600
O2102       O  0.55997356  0.49155318  0.69055946    -0.60800
O2103       O  0.56121019  0.46696637  0.66397320    -0.51700
C2104       C  0.64494176  0.02951376  0.70026874     0.70300
O2105       O  0.64282542  0.49649527  0.70409826    -0.46600
C2106       C  0.63007312  0.49463681  0.64223002     0.75000
O2107       O  0.65039446  0.42832945  0.67428386    -0.58400
O2108       O  0.60510086  0.51107773  0.65124588    -0.48500
O2109       O  0.60027866  0.42712881  0.68985819    -0.54900
C2110       C  0.54183355  0.47855612  0.67721462     0.85200
O2111       O  0.63367622  0.03656430  0.68432783    -0.56800
O2112       O  0.65061261  0.47394943  0.65162579    -0.60100
C2113       C  0.89301704  0.96352890  0.29280816     0.03200
C2114       C  0.90645319  0.92704597  0.29429580    -0.13000
C2115       C  0.90649454  0.90346058  0.27875215     0.00700
C2116       C  0.89469489  0.91862701  0.26202079    -0.11500
C2117       C  0.87425917  0.95081160  0.26129924     0.03200
C2118       C  0.87437213  0.97412622  0.27658619    -0.10900
H2119       H  0.91768195  0.91760744  0.30722044     0.08800
H2120       H  0.89617906  0.90353846  0.24929296     0.06300
H2121       H  0.86064027  0.00028647  0.27577671     0.06100
C2122       C  0.89259841  0.80382645  0.29225600     0.03200
C2123       C  0.90334720  0.84085958  0.29483995    -0.13000
C2124       C  0.91227025  0.86237539  0.27932005     0.00700
C2125       C  0.91618244  0.84318608  0.26248587    -0.11500
C2126       C  0.89290493  0.81317663  0.25923720     0.03200
C2127       C  0.88302421  0.79192950  0.27436716    -0.10900
H2128       H  0.90437481  0.85250768  0.30857141     0.08800
H2129       H  0.92776637  0.85651372  0.25054668     0.06300
H2130       H  0.86796707  0.76673713  0.27225932     0.06100
C2131       C  0.69233781  0.74970744  0.46136720     0.03200
C2132       C  0.72888388  0.73535819  0.45942461    -0.13000
C2133       C  0.75177827  0.73070729  0.47493587     0.00700
C2134       C  0.73594466  0.73875398  0.49225074    -0.11500
C2135       C  0.70351226  0.75952525  0.49409047     0.03200
C2136       C  0.68072209  0.76401570  0.47863968    -0.10900
H2137       H  0.73904885  0.72708211  0.44596806     0.08800
H2138       H  0.75131571  0.73439486  0.50474189     0.06300
H2139       H  0.65448285  0.77832026  0.48001535     0.06100
C2140       C  0.85246673  0.74867869  0.46177031     0.03200
C2141       C  0.81484155  0.73851229  0.45891764    -0.13000
C2142       C  0.79346408  0.72494803  0.47373343     0.00700
C2143       C  0.81316126  0.71626212  0.48986624    -0.11500
C2144       C  0.84444365  0.73726948  0.49445462     0.03200
C2145       C  0.86559656  0.75172243  0.48000477    -0.10900
H2146       H  0.80250425  0.74179223  0.44545788     0.08800
H2147       H  0.79911179  0.70236073  0.50097887     0.06300
H2148       H  0.89156601  0.76550733  0.48294677     0.06100
C2149       C  0.84898256  0.52079270  0.46239498     0.03200
C2150       C  0.81215073  0.53440474  0.46063690    -0.13000
C2151       C  0.78883561  0.53798406  0.47618882     0.00700
C2152       C  0.80464108  0.52994363  0.49337054    -0.11500
C2153       C  0.83787394  0.51044813  0.49493264     0.03200
C2154       C  0.86079942  0.50656922  0.47942865    -0.10900
H2155       H  0.80201607  0.54262426  0.44727951     0.08800
H2156       H  0.78913921  0.53380757  0.50594992     0.06300
H2157       H  0.88749240  0.49311114  0.48064682     0.06100
C2158       C  0.68898423  0.51801908  0.46244557     0.03200
C2159       C  0.67613614  0.51243889  0.48069369    -0.13000
C2160       C  0.69676420  0.52663677  0.49555963     0.00700
C2161       C  0.72686714  0.54940741  0.49141990    -0.11500
C2162       C  0.74702950  0.54264522  0.47507742     0.03200
C2163       C  0.72628236  0.52966776  0.45989516    -0.10900
H2164       H  0.65075061  0.49741733  0.48326507     0.08800
H2165       H  0.74003465  0.56347855  0.50280080     0.06300
H2166       H  0.73886749  0.52808402  0.44634242     0.06100
In2167     In  0.61732734  0.72211207  0.42055719     1.36900
C2168       C  0.54479480  0.73443873  0.42603760     0.77600
O2169       O  0.61509940  0.75651868  0.39478508    -0.60800
O2170       O  0.64938104  0.70955240  0.39466439    -0.51700
C2171       C  0.66573900  0.74603818  0.44589529     0.70300
O2172       O  0.63110473  0.75037023  0.44767191    -0.46600
C2173       C  0.61634298  0.65016024  0.42125630     0.75000
O2174       O  0.56529894  0.75752217  0.41811050    -0.58400
O2175       O  0.60187607  0.66820033  0.40850019    -0.48500
O2176       O  0.56200148  0.70765719  0.43252266    -0.54900
C2177       C  0.63501033  0.73469817  0.38547144     0.85200
O2178       O  0.67540955  0.73426516  0.43028433    -0.56800
O2179       O  0.63095131  0.66881560  0.43392815    -0.60100
In2180     In  0.62304095  0.71937669  0.32989950     1.36900
C2181       C  0.63122480  0.64762682  0.32415548     0.77600
O2182       O  0.65573781  0.71184876  0.35607936    -0.60800
O2183       O  0.61345908  0.75229100  0.35577724    -0.51700
C2184       C  0.65145741  0.76544290  0.30502094     0.70300
O2185       O  0.64357092  0.73289187  0.30125306    -0.46600
C2186       C  0.54912696  0.72580753  0.32948594     0.75000
O2187       O  0.65725823  0.66656914  0.33092433    -0.58400
O2188       O  0.56659574  0.71068551  0.34228788    -0.48500
O2189       O  0.60351597  0.66577494  0.31905788    -0.54900
C2190       C  0.63618983  0.73428817  0.36521901     0.85200
O2191       O  0.65058673  0.77266823  0.32200657    -0.56800
O2192       O  0.56932398  0.73810887  0.31676285    -0.60100
In2193     In  0.61483764  0.53856213  0.42062367     1.36900
C2194       C  0.54194388  0.52947429  0.42658709     0.77600
O2195       O  0.62987944  0.59204491  0.43390277    -0.60800
O2196       O  0.60141208  0.59253630  0.40835139    -0.51700
C2197       C  0.66295898  0.51693776  0.44655676     0.70300
O2198       O  0.62827038  0.51301908  0.44831528    -0.46600
C2199       C  0.63018501  0.52331252  0.38521162     0.75000
O2200       O  0.56156740  0.50439094  0.41947857    -0.58400
O2201       O  0.64703827  0.54745928  0.39427941    -0.48500
O2202       O  0.56017064  0.55655772  0.43215807    -0.54900
C2203       C  0.61597070  0.61065284  0.42119893     0.85200
O2204       O  0.67287811  0.52561286  0.43053453    -0.56800
O2205       O  0.60905477  0.50348168  0.39481262    -0.60100
In2206     In  0.61675341  0.53660318  0.32933133     1.36900
C2207       C  0.62988654  0.60750723  0.32394310     0.77600
O2208       O  0.56180585  0.52584229  0.31523852    -0.60800
O2209       O  0.56167919  0.54831439  0.34225608    -0.51700
C2210       C  0.64293888  0.48678387  0.30493218     0.70300
O2211       O  0.64078141  0.52013368  0.30129378    -0.46600
C2212       C  0.63035602  0.52285591  0.36485337     0.75000
O2213       O  0.65471809  0.58684356  0.33039678    -0.58400
O2214       O  0.60619346  0.50583111  0.35566941    -0.48500
O2215       O  0.60092208  0.59127327  0.31878554    -0.54900
C2216       C  0.54295155  0.53777480  0.32865562     0.85200
O2217       O  0.63503784  0.47965965  0.32141733    -0.56800
O2218       O  0.65078770  0.54360407  0.35536793    -0.60100
In2219     In  0.92089353  0.72677399  0.33094528     1.36900
C2220       C  0.91028404  0.65457409  0.32624245     0.77600
O2221       O  0.97531295  0.73288696  0.31566160    -0.60800
O2222       O  0.97623677  0.72310953  0.34445848    -0.51700
C2223       C  0.89589344  0.77676723  0.30718999     0.70300
O2224       O  0.89160199  0.74306368  0.30461436    -0.46600
C2225       C  0.90691809  0.74172818  0.36605115     0.75000
O2226       O  0.88443841  0.67527154  0.33197987    -0.58400
O2227       O  0.92847872  0.76072526  0.35643637    -0.48500
O2228       O  0.93941158  0.67118813  0.32154109    -0.54900
C2229       C  0.99454560  0.72860036  0.32997132     0.85200
O2230       O  0.90817408  0.78476549  0.32285040    -0.56800
O2231       O  0.88837112  0.71833366  0.35714474    -0.60100
In2232     In  0.92862694  0.72982800  0.42076946     1.36900
C2233       C  0.00099348  0.74323432  0.42600911     0.77600
O2234       O  0.91558566  0.67694089  0.43426604    -0.60800
O2235       O  0.94528058  0.67565650  0.40889055    -0.51700
C2236       C  0.87892615  0.75055529  0.44613619     0.70300
O2237       O  0.91337543  0.75556251  0.44820791    -0.46600
C2238       C  0.90909144  0.74187660  0.38617459     0.75000
O2239       O  0.98062966  0.76540469  0.41740845    -0.58400
O2240       O  0.89695800  0.71556360  0.39534153    -0.48500
O2241       O  0.98366114  0.71720086  0.43316124    -0.54900
C2242       C  0.93043743  0.65796857  0.42174865     0.85200
O2243       O  0.86990210  0.74134032  0.43006293    -0.56800
O2244       O  0.92808227  0.76471470  0.39526575    -0.60100
In2245     In  0.92562173  0.54680506  0.42207650     1.36900
C2246       C  0.99815455  0.53498883  0.42818480     0.77600
O2247       O  0.92489507  0.50976531  0.39705003    -0.60800
O2248       O  0.89172066  0.55755279  0.39690418    -0.51700
C2249       C  0.87570893  0.52496339  0.44702521     0.70300
O2250       O  0.90943826  0.51554026  0.44777119    -0.46600
C2251       C  0.92965442  0.61849456  0.42198960     0.75000
O2252       O  0.97892139  0.51334703  0.41849551    -0.58400
O2253       O  0.94255179  0.59927938  0.40901040    -0.48500
O2254       O  0.97964241  0.55986540  0.43593686    -0.54900
C2255       C  0.90432463  0.53089339  0.38793830     0.85200
O2256       O  0.86731600  0.54167691  0.43263798    -0.56800
O2257       O  0.91537939  0.60109492  0.43510668    -0.60100
In2258     In  0.91625486  0.54205197  0.33269250     1.36900
C2259       C  0.90933612  0.61417561  0.32663055     0.77600
O2260       O  0.88285110  0.55194693  0.35870796    -0.60800
O2261       O  0.92258167  0.50930237  0.35840493    -0.51700
C2262       C  0.89135283  0.49092253  0.30901864     0.70300
O2263       O  0.88255684  0.52404488  0.30763650    -0.46600
C2264       C  0.98939292  0.53829209  0.33262125     0.75000
O2265       O  0.88228883  0.59528306  0.33240424    -0.58400
O2266       O  0.97076056  0.54632430  0.34677968    -0.48500
O2267       O  0.93783676  0.59578105  0.32258253    -0.54900
C2268       C  0.90130315  0.52914746  0.36785321     0.85200
O2269       O  0.90910048  0.48390999  0.32337757    -0.56800
O2270       O  0.97076955  0.53341555  0.31810848    -0.60100
C2271       C  0.63060235  0.96038757  0.29496129     0.03200
C2272       C  0.63708004  0.92323979  0.29939617    -0.13000
C2273       C  0.64599568  0.89845208  0.28516411     0.00700
C2274       C  0.65120363  0.91322195  0.26751347    -0.11500
C2275       C  0.63220078  0.94482321  0.26230724     0.03200
C2276       C  0.62428240  0.96991523  0.27631882    -0.10900
H2277       H  0.63444457  0.91386335  0.31344351     0.08800
H2278       H  0.66565553  0.89756912  0.25732450     0.06300
H2279       H  0.61201879  0.99589232  0.27287398     0.06100
C2280       C  0.65334105  0.79401679  0.29073096     0.03200
C2281       C  0.63997341  0.78557426  0.27268776    -0.13000
C2282       C  0.62073606  0.81249323  0.26295699     0.00700
C2283       C  0.61370256  0.84501330  0.27248877    -0.11500
C2284       C  0.63847452  0.85799880  0.28570163     0.03200
C2285       C  0.65725590  0.83140294  0.29599239    -0.10900
H2286       H  0.64174582  0.75824157  0.26709365     0.08800
H2287       H  0.59365405  0.86328021  0.26719912     0.06300
H2288       H  0.67219617  0.83914766  0.30833849     0.06100
C2289       C  0.85183469  0.96284298  0.21191376     0.03200
C2290       C  0.84003828  0.92611746  0.20945692    -0.13000
C2291       C  0.82997460  0.90518834  0.22500093     0.00700
C2292       C  0.82591578  0.92470408  0.24173495    -0.11500
C2293       C  0.84946409  0.95450699  0.24504223     0.03200
C2294       C  0.86063772  0.97505018  0.22985537    -0.10900
H2295       H  0.83938923  0.91412876  0.19579149     0.08800
H2296       H  0.81390937  0.91156485  0.25363827     0.06300
H2297       H  0.87616651  0.99996130  0.23197769     0.06100
C2298       C  0.84687754  0.80341632  0.21211948     0.03200
C2299       C  0.86596153  0.79295731  0.22823433    -0.13000
C2300       C  0.86737709  0.81682769  0.24326722     0.00700
C2301       C  0.84740878  0.84929492  0.24251263    -0.11500
C2302       C  0.83512274  0.86409395  0.22579820     0.03200
C2303       C  0.83416257  0.84009191  0.21043808    -0.10900
H2304       H  0.87924474  0.76658315  0.22910875     0.08800
H2305       H  0.84659713  0.86483253  0.25511586     0.06300
H2306       H  0.82265993  0.84937268  0.19754134     0.06100
C2307       C  0.61328330  0.96141417  0.21113355     0.03200
C2308       C  0.62255322  0.97009326  0.22968838    -0.13000
C2309       C  0.61400012  0.94544065  0.24363532     0.00700
C2310       C  0.59161746  0.91593414  0.23862135    -0.11500
C2311       C  0.59425725  0.90076377  0.22080133     0.03200
C2312       C  0.60348052  0.92488316  0.20652979    -0.10900
H2313       H  0.63701379  0.99508781  0.23308065     0.08800
H2314       H  0.57814767  0.90077446  0.24914541     0.06300
H2315       H  0.60389090  0.91545277  0.19235822     0.06100
C2316       C  0.58492147  0.79645285  0.21321618     0.03200
C2317       C  0.58190334  0.83412697  0.20859991    -0.13000
C2318       C  0.59924782  0.85992632  0.22012265     0.00700
C2319       C  0.62166118  0.84588063  0.23390295    -0.11500
C2320       C  0.61316499  0.81325067  0.24251928     0.03200
C2321       C  0.59535016  0.78692797  0.23155664    -0.10900
H2322       H  0.56941579  0.84258455  0.19577807     0.08800
H2323       H  0.64136307  0.86330130  0.24006219     0.06300
H2324       H  0.59320786  0.75922471  0.23637606     0.06100
C2325       C  0.89252303  0.74909363  0.04412511     0.03200
C2326       C  0.92909985  0.73461663  0.04610455    -0.13000
C2327       C  0.95237570  0.72929345  0.03054233     0.00700
C2328       C  0.93666565  0.73670729  0.01324499    -0.11500
C2329       C  0.90420336  0.75726192  0.01140265     0.03200
C2330       C  0.88132711  0.76264122  0.02682952    -0.10900
H2331       H  0.93895043  0.72693424  0.05959446     0.08800
H2332       H  0.95202196  0.73197215  0.00069094     0.06300
H2333       H  0.85516930  0.77697773  0.02538169     0.06100
C2334       C  0.55296841  0.74024866  0.04136067     0.03200
C2335       C  0.56601749  0.74416146  0.02309382    -0.13000
C2336       C  0.54421359  0.73132961  0.00841972     0.00700
C2337       C  0.51250197  0.71073470  0.01276458    -0.11500
C2338       C  0.49320823  0.71887501  0.02925193     0.03200
C2339       C  0.51515394  0.73082830  0.04421723    -0.10900
H2340       H  0.59222575  0.75764232  0.02033072     0.08800
H2341       H  0.49811001  0.69770568  0.00144536     0.06300
H2342       H  0.50307178  0.73363028  0.05783243     0.06100
C2343       C  0.89521737  0.51488437  0.04441291     0.03200
C2344       C  0.93139565  0.53026173  0.04620608    -0.13000
C2345       C  0.95407423  0.53554957  0.03050925     0.00700
C2346       C  0.93830867  0.52692770  0.01334332    -0.11500
C2347       C  0.90663289  0.50520632  0.01176243     0.03200
C2348       C  0.88415721  0.50001076  0.02727440    -0.10900
H2349       H  0.94125771  0.53896019  0.05960687     0.08800
H2350       H  0.95311885  0.53194587  0.00070107     0.06300
H2351       H  0.85831051  0.48507460  0.02598310     0.06100
C2352       C  0.55638539  0.51734074  0.04258191     0.03200
C2353       C  0.56963732  0.51407195  0.02426224    -0.13000
C2354       C  0.54829171  0.52812778  0.00979205     0.00700
C2355       C  0.51679985  0.54886591  0.01450151    -0.11500
C2356       C  0.49715704  0.54006476  0.03071441     0.03200
C2357       C  0.51858606  0.52690317  0.04548518    -0.10900
H2358       H  0.59584572  0.50061485  0.02131284     0.08800
H2359       H  0.50270695  0.56280306  0.00346573     0.06300
H2360       H  0.50617314  0.52363260  0.05897917     0.06100
In2361     In  0.62136399  0.72310395  0.17378826     1.36900
C2362       C  0.61355831  0.65187546  0.17982788     0.77600
O2363       O  0.58797600  0.71575012  0.14769748    -0.60800
O2364       O  0.63164530  0.75466862  0.14782750    -0.51700
C2365       C  0.59025322  0.76902852  0.19838544     0.70300
O2366       O  0.59504653  0.73576751  0.20154315    -0.46600
C2367       C  0.69558726  0.72612593  0.17497239     0.75000
O2368       O  0.58798180  0.67007612  0.17229434    -0.58400
O2369       O  0.67780337  0.71125005  0.16207808    -0.48500
O2370       O  0.64050473  0.67055982  0.18549937    -0.54900
C2371       C  0.60802180  0.73731220  0.13848643     0.85200
O2372       O  0.59693398  0.77772454  0.18197203    -0.56800
O2373       O  0.67552715  0.74075670  0.18726594    -0.60100
In2374     In  0.62634603  0.72141043  0.08341865     1.36900
C2375       C  0.69943674  0.73160940  0.07833295     0.77600
O2376       O  0.63052092  0.75698125  0.10893322    -0.60800
O2377       O  0.59217642  0.71311213  0.10901872    -0.51700
C2378       C  0.57913294  0.74157068  0.05706319     0.70300
O2379       O  0.61393024  0.74309798  0.05499311    -0.46600
C2380       C  0.62513452  0.64960560  0.08369773     0.75000
O2381       O  0.67856777  0.75732114  0.08379911    -0.58400
O2382       O  0.63790015  0.66832129  0.09678959    -0.48500
O2383       O  0.68246314  0.70282543  0.07418156    -0.54900
C2384       C  0.60874997  0.73721834  0.11822623     0.85200
O2385       O  0.56893012  0.73579927  0.07337919    -0.56800
O2386       O  0.61291076  0.66748496  0.07030465    -0.60100
In2387     In  0.62936998  0.53848117  0.08452548     1.36900
C2388       C  0.70267479  0.53045534  0.07935625     0.77600
O2389       O  0.61403973  0.59090497  0.07082188    -0.60800
O2390       O  0.63888658  0.59295595  0.09733287    -0.51700
C2391       C  0.58251617  0.51631350  0.05830313     0.70300
O2392       O  0.61733341  0.51537819  0.05619751    -0.46600
C2393       C  0.61342653  0.52342530  0.11947015     0.75000
O2394       O  0.68271083  0.50407163  0.08454547    -0.58400
O2395       O  0.59659668  0.54747595  0.11052550    -0.48500
O2396       O  0.68478092  0.55877037  0.07558471    -0.54900
C2397       C  0.62566663  0.61021972  0.08397892     0.85200
O2398       O  0.57223393  0.52225540  0.07465598    -0.56800
O2399       O  0.63469763  0.50335234  0.10988775    -0.60100
In2400     In  0.62816738  0.54090050  0.17467949     1.36900
C2401       C  0.61544278  0.61189813  0.18013944     0.77600
O2402       O  0.68246428  0.51943510  0.18510730    -0.60800
O2403       O  0.68313755  0.55576070  0.16248310    -0.51700
C2404       C  0.60809466  0.49504591  0.20118422     0.70300
O2405       O  0.62226597  0.52566372  0.20446025    -0.46600
C2406       C  0.61346550  0.52385520  0.13972436     0.75000
O2407       O  0.58955048  0.59065772  0.17530796    -0.58400
O2408       O  0.63789857  0.50747691  0.14888655    -0.48500
O2409       O  0.64558926  0.59627989  0.18376759    -0.54900
C2410       C  0.70152050  0.53725785  0.17377451     0.85200
O2411       O  0.59806825  0.49057436  0.18466739    -0.56800
O2412       O  0.59323589  0.54530467  0.14905801    -0.60100
In2413     In  0.81379159  0.72402578  0.08389253     1.36900
C2414       C  0.74049908  0.73225231  0.07841150     0.77600
O2415       O  0.81962947  0.67080583  0.06865582    -0.60800
O2416       O  0.81080218  0.67030883  0.09762907    -0.51700
C2417       C  0.86505252  0.74643191  0.05942407     0.70300
O2418       O  0.83081585  0.75302947  0.05759343    -0.46600
C2419       C  0.82608276  0.73985162  0.11922783     0.75000
O2420       O  0.76022303  0.75816897  0.08449325    -0.58400
O2421       O  0.84569837  0.71755721  0.11023706    -0.48500
O2422       O  0.75867168  0.70435251  0.07382886    -0.54900
C2423       C  0.81603433  0.65226882  0.08306745     0.85200
O2424       O  0.87319031  0.73345075  0.07482969    -0.56800
O2425       O  0.80350318  0.75789823  0.10960969    -0.60100
In2426     In  0.81037881  0.72448725  0.17465065     1.36900
C2427       C  0.82282961  0.65270188  0.18026865     0.77600
O2428       O  0.75538004  0.73761448  0.18865103    -0.60800
O2429       O  0.75499574  0.71201662  0.16233461    -0.51700
C2430       C  0.83785918  0.77542857  0.19792690     0.70300
O2431       O  0.84240467  0.74176248  0.20029716    -0.46600
C2432       C  0.82493401  0.73964233  0.13946008     0.75000
O2433       O  0.84599275  0.67261813  0.17193958    -0.58400
O2434       O  0.79844889  0.75384692  0.14829715    -0.48500
O2435       O  0.79570272  0.67002718  0.18706555    -0.54900
C2436       C  0.73629665  0.72544684  0.17541585     0.85200
O2437       O  0.82218990  0.78288187  0.18300932    -0.56800
O2438       O  0.84672744  0.72076757  0.14910205    -0.60100
In2439     In  0.81529194  0.54011985  0.17431072     1.36900
C2440       C  0.82408469  0.61224429  0.18031966     0.77600
O2441       O  0.85203702  0.54420751  0.14907549    -0.60800
O2442       O  0.80419695  0.51031298  0.14793327    -0.51700
C2443       C  0.84014885  0.49087067  0.19865317     0.70300
O2444       O  0.84074434  0.52469908  0.20171117    -0.46600
C2445       C  0.74184836  0.53759337  0.17400956     0.75000
O2446       O  0.84874742  0.59324613  0.17226095    -0.58400
O2447       O  0.76047489  0.55412850  0.16202997    -0.48500
O2448       O  0.79774199  0.59382268  0.18692356    -0.54900
C2449       C  0.83033158  0.52520956  0.13926443     0.85200
O2450       O  0.83182122  0.48266540  0.18234404    -0.56800
O2451       O  0.76064951  0.52238884  0.18636250    -0.60100
In2452     In  0.81679022  0.54116821  0.08413940     1.36900
C2453       C  0.74366763  0.53106362  0.07925751     0.77600
O2454       O  0.80876330  0.50681432  0.10942789    -0.60800
O2455       O  0.84895837  0.54908645  0.11030580    -0.51700
C2456       C  0.86779507  0.51840020  0.05962043     0.70300
O2457       O  0.83350430  0.51230583  0.05764663    -0.46600
C2458       C  0.81693818  0.61288075  0.08313723     0.75000
O2459       O  0.76446409  0.50531912  0.08440131    -0.58400
O2460       O  0.81218428  0.59532370  0.09775009    -0.48500
O2461       O  0.76066835  0.55985239  0.07535852    -0.54900
C2462       C  0.83082896  0.52563397  0.11908708     0.85200
O2463       O  0.87606133  0.53163784  0.07506424    -0.56800
O2464       O  0.82161342  0.59383991  0.06879355    -0.60100
C2465       C  0.89329057  0.77020518  0.96093124     0.03200
C2466       C  0.88025361  0.76492296  0.97910889    -0.13000
C2467       C  0.90129113  0.77808767  0.99397275     0.00700
C2468       C  0.93246544  0.79963481  0.98993525    -0.11500
C2469       C  0.95232876  0.79243782  0.97350944     0.03200
C2470       C  0.93091023  0.78071242  0.95829617    -0.10900
H2471       H  0.85438077  0.75068466  0.98165480     0.08800
H2472       H  0.94613409  0.81290944  0.00140280     0.06300
H2473       H  0.94321770  0.77892184  0.94468891     0.06100
C2474       C  0.55215848  0.76272003  0.95855208     0.03200
C2475       C  0.51588364  0.77795735  0.95697382    -0.13000
C2476       C  0.49318634  0.78292635  0.97273614     0.00700
C2477       C  0.50903621  0.77407439  0.98980889    -0.11500
C2478       C  0.54095989  0.75258294  0.99114333     0.03200
C2479       C  0.56333364  0.74760496  0.97551057    -0.10900
H2480       H  0.50600647  0.78690066  0.94369243     0.08800
H2481       H  0.49413320  0.77863033  0.00250927     0.06300
H2482       H  0.58927522  0.73276519  0.97658827     0.06100
C2483       C  0.89439697  0.99386403  0.96078830     0.03200
C2484       C  0.93231597  0.98506812  0.95747714    -0.13000
C2485       C  0.95483034  0.97285739  0.97211374     0.00700
C2486       C  0.93596233  0.96372939  0.98849522    -0.11500
C2487       C  0.90425874  0.98399035  0.99339646     0.03200
C2488       C  0.88191821  0.99714268  0.97916827    -0.10900
H2489       H  0.94394242  0.98841339  0.94382259     0.08800
H2490       H  0.95068127  0.95029948  0.99948027     0.06300
H2491       H  0.85559793  0.01017238  0.98237757     0.06100
C2492       C  0.55395503  0.00287587  0.95906924     0.03200
C2493       C  0.56556649  0.01779301  0.97614436    -0.13000
C2494       C  0.54368911  0.01235454  0.99189560     0.00700
C2495       C  0.51202700  0.99049625  0.99050560    -0.11500
C2496       C  0.49579819  0.98177816  0.97343084     0.03200
C2497       C  0.51790570  0.98722209  0.95759949    -0.10900
H2498       H  0.59142241  0.03277698  0.97721010     0.08800
H2499       H  0.49765348  0.98528338  0.00324869     0.06300
H2500       H  0.50768565  0.97837194  0.94429226     0.06100
C2501       C  0.59121229  0.71325972  0.79130158     0.03200
C2502       C  0.58930962  0.67653349  0.79690757    -0.13000
C2503       C  0.58024860  0.64915993  0.78411802     0.00700
C2504       C  0.56754439  0.66013102  0.76672566    -0.11500
C2505       C  0.58129665  0.69293716  0.75939149     0.03200
C2506       C  0.58965957  0.72088775  0.77219933    -0.10900
H2507       H  0.59853072  0.66891220  0.81053771     0.08800
H2508       H  0.55779409  0.63905207  0.75743853     0.06300
H2509       H  0.59870627  0.74722034  0.76737305     0.06100
C2510       C  0.61067086  0.54984935  0.78945215     0.03200
C2511       C  0.63476117  0.54784379  0.77390326    -0.13000
C2512       C  0.64506389  0.57952248  0.76438766     0.00700
C2513       C  0.63146931  0.61273007  0.77141806    -0.11500
C2514       C  0.60185435  0.61444863  0.78396193     0.03200
C2515       C  0.59227219  0.58297930  0.79366557    -0.10900
H2516       H  0.64694207  0.52204762  0.76984745     0.08800
H2517       H  0.64011112  0.63818166  0.76558848     0.06300
H2518       H  0.57153212  0.58436759  0.80452322     0.06100
C2519       C  0.85522391  0.55601057  0.79368075     0.03200
C2520       C  0.87750106  0.54616063  0.77830026    -0.13000
C2521       C  0.87871929  0.56895046  0.76299942     0.00700
C2522       C  0.85569961  0.59944409  0.76278205    -0.11500
C2523       C  0.83972830  0.61421481  0.77887582     0.03200
C2524       C  0.83885599  0.59143008  0.79448118    -0.10900
H2525       H  0.89299802  0.52088857  0.77809119     0.08800
H2526       H  0.85454418  0.61364009  0.74991881     0.06300
H2527       H  0.82464492  0.60057653  0.80686141     0.06100
C2528       C  0.84706863  0.71471689  0.79137448     0.03200
C2529       C  0.85597346  0.72603555  0.77337398    -0.13000
C2530       C  0.84752528  0.70342576  0.75839028     0.00700
C2531       C  0.82631355  0.67212417  0.76183786    -0.11500
C2532       C  0.83055300  0.65459123  0.77893954     0.03200
C2533       C  0.83780425  0.67754858  0.79425532    -0.10900
H2534       H  0.86980315  0.75177586  0.77106823     0.08800
H2535       H  0.81657173  0.65683740  0.75000410     0.06300
H2536       H  0.83734511  0.66669664  0.80807212     0.06100
In2537     In  0.63044148  0.97449780  0.91890558     1.36900
C2538       C  0.70314212  0.98467323  0.92500322     0.77600
O2539       O  0.61842821  0.92162186  0.93313240    -0.60800
O2540       O  0.64275077  0.92014648  0.90640078    -0.51700
C2541       C  0.58065430  0.99907907  0.94355322     0.70300
O2542       O  0.61498795  0.00549028  0.94502272    -0.46600
C2543       C  0.61611061  0.98857787  0.88374623     0.75000
O2544       O  0.68363071  0.00854784  0.91714296    -0.58400
O2545       O  0.59912874  0.96442574  0.89260773    -0.48500
O2546       O  0.68489193  0.95814008  0.93108300    -0.54900
C2547       C  0.63057948  0.90253542  0.91993437     0.85200
O2548       O  0.57170355  0.98490027  0.92839806    -0.56800
O2549       O  0.63658932  0.00896540  0.89344299    -0.60100
In2550     In  0.63486384  0.97284800  0.82871217     1.36900
C2551       C  0.62356703  0.90188320  0.82268677     0.77600
O2552       O  0.68979823  0.98873045  0.81628981    -0.60800
O2553       O  0.68956819  0.96408716  0.84263748    -0.51700
C2554       C  0.61037232  0.51934925  0.80263996     0.70300
O2555       O  0.62590359  0.98924790  0.79933924    -0.46600
C2556       C  0.61742433  0.98818923  0.86352302     0.75000
O2557       O  0.59691380  0.92268660  0.82711813    -0.58400
O2558       O  0.64184192  0.00559360  0.85473332    -0.48500
O2559       O  0.65393920  0.91786493  0.82003276    -0.54900
C2560       C  0.70844718  0.97699185  0.82959891     0.85200
O2561       O  0.60240229  0.52335472  0.81946254    -0.56800
O2562       O  0.59859258  0.96613695  0.85389468    -0.60100
In2563     In  0.82228983  0.97744758  0.83072525     1.36900
C2564       C  0.83134933  0.90530500  0.82461927     0.77600
O2565       O  0.85688254  0.97039848  0.85638316    -0.60800
O2566       O  0.81234431  0.00825891  0.85704628    -0.51700
C2567       C  0.84645334  0.52842208  0.80790093     0.70300
O2568       O  0.85893550  0.99690598  0.80700554    -0.46600
C2569       C  0.74886684  0.97737669  0.82981414     0.75000
O2570       O  0.85648789  0.92449518  0.83200994    -0.58400
O2571       O  0.76694262  0.96983227  0.84409562    -0.48500
O2572       O  0.80430700  0.92349800  0.81868080    -0.54900
C2573       C  0.83632852  0.99103577  0.86599236     0.85200
O2574       O  0.82649454  0.53539619  0.82170611    -0.56800
O2575       O  0.76829397  0.98431199  0.81574718    -0.60100
In2576     In  0.81735308  0.97371024  0.92055730     1.36900
C2577       C  0.74416837  0.98437898  0.92535048     0.77600
O2578       O  0.81495972  0.51280782  0.89579803    -0.60800
O2579       O  0.85063468  0.96455761  0.89481437    -0.51700
C2580       C  0.86729537  0.99459929  0.94553835     0.70300
O2581       O  0.83279025  0.99873259  0.94804206    -0.46600
C2582       C  0.81732503  0.90194560  0.92081683     0.75000
O2583       O  0.76482117  0.00894026  0.91875346    -0.58400
O2584       O  0.80827075  0.91992683  0.90686040    -0.48500
O2585       O  0.76139241  0.95680203  0.93085028    -0.54900
C2586       C  0.83505598  0.98975552  0.88612278     0.85200
O2587       O  0.87605898  0.98562151  0.92936789    -0.56800
O2588       O  0.82624693  0.92055878  0.93473947    -0.60100
In2589     In  0.81731200  0.79074841  0.92021807     1.36900
C2590       C  0.74428052  0.78004122  0.92558328     0.77600
O2591       O  0.82658310  0.84416863  0.93455911    -0.60800
O2592       O  0.80721759  0.84432165  0.90693161    -0.51700
C2593       C  0.86695323  0.76962776  0.94528716     0.70300
O2594       O  0.83251497  0.76429287  0.94723771    -0.46600
C2595       C  0.83369172  0.77644161  0.88526027     0.75000
O2596       O  0.76472171  0.75547636  0.91856796    -0.58400
O2597       O  0.85072587  0.80014440  0.89452319    -0.48500
O2598       O  0.76172224  0.80759086  0.93119387    -0.54900
C2599       C  0.81712650  0.86254500  0.92079365     0.85200
O2600       O  0.87611563  0.77987464  0.92943434    -0.56800
O2601       O  0.81213855  0.75636811  0.89450377    -0.60100
In2602     In  0.81921928  0.79297434  0.83009838     1.36900
C2603       C  0.83037599  0.86490212  0.82469276     0.77600
O2604       O  0.76575877  0.78027336  0.81522090    -0.60800
O2605       O  0.76313389  0.80282825  0.84227254    -0.51700
C2606       C  0.84383660  0.74225801  0.80629586     0.70300
O2607       O  0.84804054  0.77586919  0.80363243    -0.46600
C2608       C  0.83336244  0.77725561  0.86508369     0.75000
O2609       O  0.85535821  0.84474046  0.83140937    -0.58400
O2610       O  0.80729496  0.76293388  0.85613060    -0.48500
O2611       O  0.80189018  0.84784257  0.81948983    -0.54900
C2612       C  0.74568103  0.79060617  0.82855086     0.85200
O2613       O  0.83188195  0.73473736  0.82207906    -0.56800
O2614       O  0.85505279  0.79683627  0.85565523    -0.60100
In2615     In  0.63137202  0.79094877  0.82842621     1.36900
C2616       C  0.62221788  0.86191775  0.82242664     0.77600
O2617       O  0.59719597  0.79976310  0.85428202    -0.60800
O2618       O  0.64011976  0.75993940  0.85457301    -0.51700
C2619       C  0.60236373  0.74184827  0.80477302     0.70300
O2620       O  0.60702296  0.77472413  0.80064007    -0.46600
C2621       C  0.70520080  0.78934631  0.82831903     0.75000
O2622       O  0.59617566  0.84299338  0.82915366    -0.58400
O2623       O  0.68623732  0.80167162  0.84153848    -0.48500
O2624       O  0.65013162  0.84395177  0.81718621    -0.54900
C2625       C  0.61641961  0.77790940  0.86368392     0.85200
O2626       O  0.60948675  0.73504399  0.82133635    -0.56800
O2627       O  0.68652264  0.77677398  0.81505107    -0.60100
In2628     In  0.63056121  0.79107597  0.91926452     1.36900
C2629       C  0.70317783  0.77995275  0.92545877     0.77600
O2630       O  0.63575129  0.75664869  0.89339245    -0.60800
O2631       O  0.60002918  0.80258448  0.89303261    -0.51700
C2632       C  0.57963426  0.76691846  0.94340828     0.70300
O2633       O  0.61404319  0.76154693  0.94540384    -0.46600
C2634       C  0.63087914  0.86302506  0.92012361     0.75000
O2635       O  0.68334208  0.75606771  0.91760321    -0.58400
O2636       O  0.64443044  0.84474325  0.90700456    -0.48500
O2637       O  0.68519788  0.80683363  0.93161873    -0.54900
C2638       C  0.61594626  0.77782757  0.88392066     0.85200
O2639       O  0.57126789  0.78018892  0.92807932    -0.56800
O2640       O  0.61775994  0.84460956  0.93319445    -0.60100
C2641       C  0.69159027  0.77440926  0.54454149     0.00000
C2642       C  0.67869043  0.76919201  0.52632449    -0.13000
C2643       C  0.70054102  0.78116822  0.51150983     0.00700
C2644       C  0.73216701  0.80203844  0.51570659    -0.11500
C2645       C  0.75156719  0.79455438  0.53212484     0.03200
C2646       C  0.72952566  0.78361785  0.54724970    -0.10900
H2647       H  0.65240782  0.75572168  0.52372450     0.08800
H2648       H  0.74630173  0.81490454  0.50431851     0.06300
H2649       H  0.74154718  0.78164958  0.56084810     0.06100
C2650       C  0.85195798  0.76610395  0.54478787     0.03200
C2651       C  0.86309705  0.75160696  0.52756215    -0.13000
C2652       C  0.84091324  0.75752662  0.51213019     0.00700
C2653       C  0.80909143  0.77909367  0.51392650    -0.11500
C2654       C  0.79314590  0.78728600  0.53118947     0.03200
C2655       C  0.81580333  0.78161771  0.54677161    -0.10900
H2656       H  0.88896629  0.73669112  0.52609790     0.08800
H2657       H  0.79441040  0.78429367  0.50133138     0.06300
H2658       H  0.80596738  0.79010378  0.56025103     0.06100
C2659       C  0.69336377  0.00909804  0.54647772     0.03200
C2660       C  0.68198347  0.02330698  0.52934217    -0.13000
C2661       C  0.70403454  0.01724847  0.51367715     0.00700
C2662       C  0.73568077  0.99539427  0.51518056    -0.11500
C2663       C  0.75168244  0.98724334  0.53231201     0.03200
C2664       C  0.72940880  0.99346384  0.54809485    -0.10900
H2665       H  0.65619447  0.03837226  0.52818183     0.08800
H2666       H  0.75026992  0.98985746  0.50248715     0.06300
H2667       H  0.73937798  0.98506062  0.56145129     0.06100
C2668       C  0.85355730  0.99899469  0.54480134     0.03200
C2669       C  0.86626200  0.00294508  0.52645705    -0.13000
C2670       C  0.84394604  0.99039996  0.51189840     0.00700
C2671       C  0.81200174  0.97037932  0.51646384    -0.11500
C2672       C  0.79306113  0.97922317  0.53296366     0.03200
C2673       C  0.81550332  0.99066559  0.54783848    -0.10900
H2674       H  0.89277780  0.01572873  0.52356433     0.08800
H2675       H  0.79728161  0.95727027  0.50527191     0.06300
H2676       H  0.80370431  0.99368478  0.56150692     0.06100
C2677       C  0.90372203  0.55352038  0.71424999     0.03200
C2678       C  0.89657333  0.54228414  0.73246320    -0.13000
C2679       C  0.90513332  0.56546994  0.74721368     0.00700
C2680       C  0.92577979  0.59696421  0.74330774    -0.11500
C2681       C  0.92018324  0.61420512  0.72620758     0.03200
C2682       C  0.91212192  0.59084142  0.71110824    -0.10900
H2683       H  0.88331713  0.51638358  0.73509379     0.08800
H2684       H  0.93600796  0.61249326  0.75494697     0.06300
H2685       H  0.91134162  0.60147715  0.69725651     0.06100
C2686       C  0.89330038  0.71208820  0.71108377     0.03200
C2687       C  0.87249475  0.72230994  0.72686670    -0.13000
C2688       C  0.87364990  0.70050232  0.74250966     0.00700
C2689       C  0.89723170  0.67036763  0.74255452    -0.11500
C2690       C  0.91117854  0.65472748  0.72616862     0.03200
C2691       C  0.91000706  0.67680716  0.71028077    -0.10900
H2692       H  0.85636973  0.74720450  0.72713029     0.08800
H2693       H  0.89954353  0.65667718  0.75553672     0.06300
H2694       H  0.92291637  0.66725126  0.69763489     0.06100
C2695       C  0.63332577  0.72126886  0.71505452     0.03200
C2696       C  0.60945430  0.72371199  0.73070618    -0.13000
C2697       C  0.59927878  0.69222333  0.74044490     0.00700
C2698       C  0.61262555  0.65888064  0.73346397    -0.11500
C2699       C  0.64212090  0.65698814  0.72085908     0.03200
C2700       C  0.65157539  0.68811225  0.71095701    -0.10900
H2701       H  0.59753725  0.74964548  0.73473848     0.08800
H2702       H  0.60413170  0.63353751  0.73945972     0.06300
H2703       H  0.67227328  0.68645749  0.70008341     0.06100
C2704       C  0.65440136  0.55853244  0.71373194     0.03200
C2705       C  0.65612697  0.55089632  0.73279900    -0.13000
C2706       C  0.66363358  0.57904136  0.74560030     0.00700
C2707       C  0.67687425  0.61202459  0.73828480    -0.11500
C2708       C  0.66408400  0.62265368  0.72086949     0.03200
C2709       C  0.65556122  0.59520114  0.70809344    -0.10900
H2710       H  0.64752594  0.52439891  0.73758438     0.08800
H2711       H  0.68625195  0.63329168  0.74755286     0.06300
H2712       H  0.64626570  0.60265178  0.69445080     0.06100
In2713     In  0.61624418  0.79752145  0.58567736     1.36900
C2714       C  0.54444690  0.78548058  0.57851831     0.77600
O2715       O  0.61051046  0.76266497  0.61111086    -0.60800
O2716       O  0.64681350  0.80805995  0.61215209    -0.51700
C2717       C  0.66500153  0.77494572  0.56017716     0.70300
O2718       O  0.63033484  0.77240637  0.55801676    -0.46600
C2719       C  0.61609012  0.86954129  0.58517660     0.75000
O2720       O  0.56433232  0.76156322  0.58615083    -0.58400
O2721       O  0.59856988  0.85154533  0.59705595    -0.48500
O2722       O  0.56198269  0.81320112  0.57335056    -0.54900
C2723       C  0.63047795  0.78336512  0.62090914     0.85200
O2724       O  0.67450845  0.78334597  0.57632560    -0.56800
O2725       O  0.63372111  0.85083560  0.57345893    -0.60100
In2726     In  0.61352529  0.79875443  0.67616582     1.36900
C2727       C  0.62598802  0.86915703  0.68295147     0.77600
O2728       O  0.64992012  0.80377489  0.65087554    -0.60800
O2729       O  0.60406046  0.76733339  0.64990593    -0.51700
C2730       C  0.63400040  0.75133194  0.70168235     0.70300
O2731       O  0.62158763  0.78241918  0.70557139    -0.46600
C2732       C  0.54006478  0.79441664  0.67474512     0.75000
O2733       O  0.65174010  0.84863161  0.67710625    -0.58400
O2734       O  0.55885279  0.81184360  0.66310570    -0.48500
O2735       O  0.59610968  0.85307027  0.68665177    -0.54900
C2736       C  0.62947760  0.78333672  0.64114785     0.85200
O2737       O  0.64184131  0.74671746  0.68486593    -0.56800
O2738       O  0.55872469  0.77899732  0.68704379    -0.60100
In2739     In  0.93082213  0.79272701  0.58374520     1.36900
C2740       C  0.00421287  0.78388075  0.57823768     0.77600
O2741       O  0.92201696  0.84591683  0.56949982    -0.60800
O2742       O  0.93966810  0.84631300  0.59746498    -0.51700
C2743       C  0.87944369  0.76959620  0.55982840     0.70300
O2744       O  0.91344363  0.76152891  0.55805109    -0.46600
C2745       C  0.91393678  0.77725587  0.61835349     0.75000
O2746       O  0.98473291  0.75968595  0.58593538    -0.58400
O2747       O  0.89830564  0.80228195  0.60960669    -0.48500
O2748       O  0.98569972  0.80993161  0.57188312    -0.54900
C2749       C  0.93038997  0.86440951  0.58357960     0.85200
O2750       O  0.87163771  0.78500184  0.57482544    -0.56800
O2751       O  0.93519304  0.75709729  0.60881517    -0.60100
In2752     In  0.92627076  0.79120768  0.67363525     1.36900
C2753       C  0.91621542  0.86267305  0.68056217     0.77600
O2754       O  0.98078062  0.78202206  0.68762859    -0.60800
O2755       O  0.98098281  0.80437516  0.66065577    -0.51700
C2756       C  0.90072692  0.73943020  0.69654874     0.70300
O2757       O  0.88959428  0.77200866  0.69737821    -0.46600
C2758       C  0.91279905  0.77649720  0.63847382     0.75000
O2759       O  0.89213867  0.84385489  0.67212530    -0.58400
O2760       O  0.93706885  0.75991035  0.64753754    -0.48500
O2761       O  0.94249669  0.84428869  0.68715215    -0.54900
C2762       C  0.99961506  0.79357682  0.67419490     0.85200
O2763       O  0.92184874  0.73302778  0.68311116    -0.56800
O2764       O  0.89187415  0.79707458  0.64791708    -0.60100
In2765     In  0.92831139  0.97474395  0.67564219     1.36900
C2766       C  0.91704824  0.90299541  0.68084781     0.77600
O2767       O  0.89258421  0.96909857  0.65017287    -0.60800
O2768       O  0.93961461  0.00400780  0.64933689    -0.51700
C2769       C  0.90383511  0.02628991  0.69886621     0.70300
O2770       O  0.89935288  0.99280636  0.70183084    -0.46600
C2771       C  0.00167348  0.97766042  0.67775803     0.75000
O2772       O  0.89271772  0.92305148  0.67354455    -0.58400
O2773       O  0.98475719  0.96653489  0.66364504    -0.48500
O2774       O  0.94484996  0.92011051  0.68686973    -0.54900
C2775       C  0.91375644  0.98883585  0.64055573     0.85200
O2776       O  0.91556660  0.53321865  0.68312121    -0.56800
O2777       O  0.98116993  0.98642299  0.69119381    -0.60100
In2778     In  0.92906326  0.97572010  0.58535524     1.36900
C2779       C  0.00180655  0.98797985  0.58083857     0.77600
O2780       O  0.93364297  0.01001516  0.61103043    -0.60800
O2781       O  0.89647402  0.96503646  0.61122163    -0.51700
C2782       C  0.88027186  0.99845330  0.56027223     0.70300
O2783       O  0.91491649  0.00169146  0.55807485    -0.46600
C2784       C  0.92971875  0.90383921  0.58396766     0.75000
O2785       O  0.98060844  0.01181291  0.58789898    -0.58400
O2786       O  0.93970610  0.92165045  0.59794702    -0.48500
O2787       O  0.98528723  0.96023553  0.57479613    -0.54900
C2788       C  0.91299209  0.98929467  0.62038476     0.85200
O2789       O  0.87084415  0.98924491  0.57627051    -0.56800
O2790       O  0.91939780  0.92266185  0.57051301    -0.60100
In2791     In  0.61626874  0.98100908  0.58616419     1.36900
C2792       C  0.54416167  0.99227481  0.57938944     0.77600
O2793       O  0.63337023  0.92755323  0.57344560    -0.60800
O2794       O  0.59802484  0.92723321  0.59697051    -0.51700
C2795       C  0.66622721  0.00577013  0.56181086     0.70300
O2796       O  0.63168164  0.00995430  0.55974154    -0.46600
C2797       C  0.63074497  0.99309559  0.62163238     0.75000
O2798       O  0.56316374  0.01499521  0.58854734    -0.58400
O2799       O  0.64630165  0.96830399  0.61239670    -0.48500
O2800       O  0.56287815  0.96689458  0.57216846    -0.54900
C2801       C  0.61583073  0.90904601  0.58513204     0.85200
O2802       O  0.67509216  0.99401624  0.57740286    -0.56800
O2803       O  0.61130744  0.01478402  0.61226912    -0.60100
In2804     In  0.61651809  0.97937360  0.67717996     1.36900
C2805       C  0.62740125  0.90904552  0.68340790     0.77600
O2806       O  0.56121725  0.99093204  0.69093803    -0.60800
O2807       O  0.56189757  0.96680102  0.66426139    -0.51700
C2808       C  0.64353465  0.52987471  0.70037479     0.70300
O2809       O  0.64465246  0.99612108  0.70395723    -0.46600
C2810       C  0.63045198  0.99272137  0.64186352     0.75000
O2811       O  0.65202699  0.92792412  0.67546009    -0.58400
O2812       O  0.60642389  0.01004704  0.65107399    -0.48500
O2813       O  0.60044676  0.92692693  0.68987703    -0.54900
C2814       C  0.54276593  0.97836453  0.67759264     0.85200
O2815       O  0.63273250  0.53704167  0.68437638    -0.56800
O2816       O  0.65037775  0.97131384  0.65117015    -0.60100
loop_ 
_geom_bond_atom_site_label_1 
_geom_bond_atom_site_label_2 
_geom_bond_distance 
_geom_bond_site_symmetry_2 
_ccdc_geom_bond_type 
C1            C2   1.431       .  A
C1            C6   1.413       .  A
C1          C854   1.487       .  S
C2            C3   1.417       .  A
C2            H7   1.082       .  S
C3            C4   1.408       .  A
C3           C12   1.528       .  S
C4            C5   1.395       .  A
C4            H8   1.075       .  S
C5            C6   1.395       .  A
C5          C181   1.487       .  S
C6            H9   1.083       .  S
C10          C11   1.428       .  A
C10          C15   1.412       .  A
C10         C111   1.485       .  S
C11          C12   1.418       .  A
C11          H16   1.082       .  S
C12          C13   1.412       .  A
C13          C14   1.404       .  A
C13          H17   1.081       .  S
C14          C15   1.399       .  A
C14         C188   1.490       .  S
C15          H18   1.083       .  S
C19          C20   1.421       .  A
C19          C24   1.416       .  A
C19          C59   1.483       .  S
C20          C21   1.409       .  A
C20          H25   1.082       .  S
C21          C22   1.407       .  A
C21          C30   1.516       .  S
C22          C23   1.399       .  A
C22          H26   1.077       .  S
C23          C24   1.401       .  A
C23         C531   1.492       .  S
C24          H27   1.083       .  S
C28          C29   1.419       .  A
C28          C33   1.409       .  A
C28         C124   1.479       .  S
C29          C30   1.414       .  A
C29          H34   1.082       .  S
C30          C31   1.410       .  A
C31          C32   1.405       .  A
C31          H35   1.082       .  S
C32          C33   1.400       .  A
C32         C540   1.483       .  S
C33          H36   1.083       .  S
C37          C38   1.422       .  A
C37          C42   1.413       .  A
C37         C137   1.478       .  S
C38          C39   1.409       .  A
C38          H43   1.082       .  S
C39          C40   1.407       .  A
C39          C50   1.517       .  S
C40          C41   1.399       .  A
C40          H44   1.076       .  S
C41          C42   1.397       .  A
C41        C1262   1.487   1_545  S
C42          H45   1.083   1_545  S
C46          C47   1.418       .  A
C46          C51   1.420       .  A
C46          C85   1.488       .  S
C47          C48   1.408       .  A
C47          H52   1.083       .  S
C48          C49   1.403       .  A
C48        C1253   1.494       .  S
C49          C50   1.409       .  A
C49          H53   1.081       .  S
C50          C51   1.414       .  A
C51          H54   1.082       .  S
In55         O57   2.272       .  S
In55         O58   2.240       .  S
In55         O66   2.249       .  S
In55         O60   2.274       .  S
In55         O62   2.282       .  S
In55         O63   2.235       .  S
In55         O64   2.229       .  S
In55         O67   2.239       .  S
C56        C1529   1.471       .  S
C56          O62   1.265       .  A
C56          O64   1.259       .  A
O57          C65   1.264       .  A
O58          C65   1.256       .  A
C59          O66   1.257       .  A
C59          O60   1.261       .  A
C61          C91   1.451       .  S
C61          O63   1.258       .  A
C61          O67   1.258       .  A
C65          C78   1.470       .  S
In68         O70   2.254       .  S
In68         O71   2.252       .  S
In68         O79   2.269       .  S
In68         O73   2.264       .  S
In68         O75   2.294       .  S
In68         O76   2.237       .  S
In68         O77   2.230       .  S
In68         O80   2.267       .  S
C69          C95   1.474       .  S
C69          O75   1.265       .  A
C69          O77   1.257       .  A
O70          C78   1.265       .  A
O71          C78   1.260       .  A
C72         C168   1.483       .  S
C72          O79   1.259       .  A
C72          O73   1.259       .  A
C74        C1525   1.460       .  S
C74          O76   1.257       .  A
C74          O80   1.259       .  A
In81         O83   2.242       .  S
In81         O84   2.238       .  S
In81         O92   2.262       .  S
In81         O86   2.276       .  S
In81         O88   2.291       .  S
In81         O89   2.252       .  S
In81         O90   2.226       .  S
In81         O93   2.273       .  S
C82        C1542   1.473       .  S
C82          O88   1.266       .  A
C82          O90   1.257       .  A
O83          C91   1.257       .  A
O84          C91   1.258       .  A
C85          O92   1.259       .  A
C85          O86   1.261       .  A
C87         C100   1.475       .  S
C87          O89   1.258       .  A
C87          O93   1.264       .  A
In94         O96   2.255       .  S
In94         O97   2.230       .  S
In94        O105   2.258   1_545  S
In94         O99   2.279       .  S
In94        O101   2.291       .  S
In94        O102   2.259       .  S
In94        O103   2.231       .  S
In94        O106   2.264       .  S
C95         O101   1.265       .  A
C95         O103   1.258       .  A
O96         C104   1.258       .  A
O97         C104   1.256       .  A
C98         C863   1.487       .  S
C98         O105   1.258       .  A
C98          O99   1.259   1_565  A
C100        O102   1.260       .  A
C100        O106   1.264       .  A
C104       C1560   1.453       .  S
In107       O109   2.244       .  S
In107       O110   2.238       .  S
In107       O118   2.267       .  S
In107       O112   2.271       .  S
In107       O114   2.299       .  S
In107       O115   2.238       .  S
In107       O116   2.257       .  S
In107       O119   2.251       .  S
C108        C147   1.488       .  S
C108        O114   1.266       .  A
C108        O116   1.260       .  A
O109        C117   1.259       .  A
O110        C117   1.257       .  A
C111        O118   1.255       .  A
C111        O112   1.262       .  A
C113        C126   1.461       .  S
C113        O115   1.256       .  A
C113        O119   1.263       .  A
C117       C1482   1.454       .  S
In120       O122   2.237       .  S
In120       O123   2.238       .  S
In120       O131   2.248       .  S
In120       O125   2.261       .  S
In120       O127   2.296       .  S
In120       O128   2.232       .  S
In120       O129   2.229       .  S
In120       O132   2.257       .  S
C121       C1464   1.474       .  S
C121        O127   1.265       .  A
C121        O129   1.257       .  A
O122        C130   1.258       .  A
O123        C130   1.259       .  A
C124        O131   1.256       .  A
C124        O125   1.262       .  A
C126        O128   1.257       .  A
C126        O132   1.264       .  A
C130        C139   1.451       .  S
In133       O135   2.260       .  S
In133       O136   2.236       .  S
In133       O144   2.238       .  S
In133       O138   2.272       .  S
In133       O140   2.291       .  S
In133       O141   2.235       .  S
In133       O142   2.235       .  S
In133       O145   2.237       .  S
C134       C1490   1.475       .  S
C134        O140   1.265       .  A
C134        O142   1.258       .  A
O135        C143   1.265       .  A
O136        C143   1.256       .  A
C137        O144   1.254       .  A
C137        O138   1.262       .  A
C139        O141   1.259       .  A
C139        O145   1.260       .  A
C143        C156   1.463       .  S
In146       O148   2.260       .  S
In146       O149   2.241       .  S
In146       O157   2.253   1_545  S
In146       O151   2.291       .  S
In146       O153   2.301       .  S
In146       O154   2.226       .  S
In146       O155   2.259       .  S
In146       O158   2.236       .  S
C147        O153   1.266       .  A
C147        O155   1.260       .  A
O148        C156   1.263       .  A
O149        C156   1.254       .  A
C150        C705   1.488       .  S
C150        O157   1.253       .  A
C150        O151   1.264   1_565  A
C152       C1512   1.449       .  S
C152        O154   1.257       .  A
C152        O158   1.261       .  A
C159        C160   1.425       .  A
C159        C164   1.419       .  A
C159        C802   1.473       .  S
C160        C161   1.406       .  A
C160        H165   1.083       .  S
C161        C162   1.407       .  A
C161        C172   1.511       .  S
C162        C163   1.403       .  A
C162        H166   1.065       .  S
C163        C164   1.395       .  A
C163        C197   1.506       .  S
C164        H167   1.083       .  S
C168        C169   1.429       .  A
C168        C173   1.431       .  A
C169        C170   1.404       .  A
C169        H174   1.083       .  S
C170        C171   1.396       .  A
C170        C208   1.507       .  S
C171        C172   1.391       .  A
C171        H175   1.056       .  S
C172        C173   1.408       .  A
C173        H176   1.082       .  S
C177        C178   1.426       .  A
C177        C182   1.411       .  A
C177       C1035   1.485       .  S
C178        C179   1.417       .  A
C178        H183   1.082       .  S
C179        C180   1.411       .  A
C179        C190   1.523       .  S
C180        C181   1.404       .  A
C180        H184   1.082       .  S
C181        C182   1.399       .  A
C182        H185   1.083       .  S
C186        C187   1.415       .  A
C186        C191   1.430       .  A
C186        C318   1.487       .  S
C187        C188   1.397       .  A
C187        H192   1.083       .  S
C188        C189   1.395       .  A
C189        C190   1.407       .  A
C189        H193   1.075       .  S
C190        C191   1.415       .  A
C191        H194   1.082       .  S
C195        C196   1.423       .  A
C195        C200   1.427       .  A
C195        C996   1.476       .  S
C196        C197   1.399       .  A
C196        H201   1.083       .  S
C197        C198   1.396       .  A
C198        C199   1.403       .  A
C198        H202   1.061       .  S
C199        C200   1.407       .  A
C199        C206   1.510       .  S
C200        H203   1.083       .  S
C204        C205   1.429       .  A
C204        C209   1.428       .  A
C204        C253   1.477       .  S
C205        C206   1.405       .  A
C205        H210   1.083       .  S
C206        C207   1.393       .  A
C207        C208   1.395       .  A
C207        H211   1.056       .  S
C208        C209   1.402       .  A
C209        H212   1.083       .  S
C213        C214   1.425       .  A
C213        C218   1.414       .  A
C213        C305   1.485       .  S
C214        C215   1.414       .  A
C214        H219   1.082       .  S
C215        C216   1.407       .  A
C215       C1634   1.521       .  S
C216        C217   1.397       .  A
C216        H220   1.076       .  S
C217        C218   1.398       .  A
C217        C355   1.488   1_554  S
C218        H221   1.083       .  S
C222        C223   1.413       .  A
C222        C227   1.418       .  A
C222        C266   1.482       .  S
C223        C224   1.404       .  A
C223        H228   1.083       .  S
C224        C225   1.403       .  A
C224        C366   1.488   1_554  S
C225        C226   1.409   1_455  A
C225        H229   1.081   1_455  S
C226        C227   1.413   1_655  A
C226       C1623   1.515       .  S
C227        H230   1.082       .  S
C231        C232   1.425       .  A
C231        C236   1.413       .  A
C231        C344   1.482       .  S
C232        C233   1.414       .  A
C232        H237   1.082       .  S
C233        C234   1.406       .  A
C233       C1652   1.518       .  S
C234        C235   1.396       .  A
C234        H238   1.076       .  S
C235        C236   1.396       .  A
C235       C1079   1.486   1_544  S
C236        H239   1.083   1_545  S
C240        C241   1.415       .  A
C240        C245   1.417       .  A
C240        C279   1.484       .  S
C241        C242   1.405       .  A
C241        H246   1.083       .  S
C242        C243   1.403       .  A
C242       C1086   1.489   1_554  S
C243        C244   1.409   1_455  A
C243        H247   1.082       .  S
C244        C245   1.412   1_655  A
C244       C1641   1.512       .  S
C245        H248   1.082       .  S
In249       O251   2.254       .  S
In249       O252   2.251       .  S
In249       O260   2.259       .  S
In249       O254   2.258       .  S
In249       O256   2.285       .  S
In249       O257   2.230       .  S
In249       O258   2.229       .  S
In249       O261   2.270       .  S
C250        C289   1.472       .  S
C250        O256   1.265       .  A
C250        O258   1.257       .  A
O251        C259   1.264       .  A
O252        C259   1.259       .  A
C253        O260   1.258       .  A
C253        O254   1.258       .  A
C255        C324   1.460       .  S
C255        O257   1.257       .  A
C255        O261   1.261       .  A
C259        C272   1.469       .  S
In262       O264   2.266       .  S
In262       O265   2.240       .  S
In262       O273   2.258       .  S
In262       O267   2.263       .  S
In262       O269   2.294       .  S
In262       O270   2.230       .  S
In262       O271   2.228       .  S
In262       O274   2.247       .  S
C263        C302   1.474       .  S
C263        O269   1.266       .  A
C263        O271   1.257       .  A
O264        C272   1.265       .  A
O265        C272   1.257       .  A
C266        O273   1.258       .  A
C266        O267   1.259       .  A
C268        C285   1.450       .  S
C268        O270   1.257       .  A
C268        O274   1.258       .  A
In275       O277   2.248       .  S
In275       O278   2.233       .  S
In275       O286   2.261       .  S
In275       O280   2.265       .  S
In275       O282   2.304       .  S
In275       O283   2.246       .  S
In275       O284   2.218       .  S
In275       O287   2.270       .  S
C276        C341   1.474       .  S
C276        O282   1.267       .  A
C276        O284   1.256       .  A
O277        C285   1.258       .  A
O278        C285   1.258       .  A
C279        O286   1.259       .  A
C279        O280   1.260       .  A
C281        C294   1.472       .  S
C281        O283   1.258       .  A
C281        O287   1.264       .  A
In288       O290   2.241       .  S
In288       O291   2.226       .  S
In288       O299   2.268   1_545  S
In288       O293   2.248       .  S
In288       O295   2.292       .  S
In288       O296   2.259       .  S
In288       O297   2.231       .  S
In288       O300   2.258       .  S
C289        O295   1.263       .  A
C289        O297   1.256       .  A
O290        C298   1.257       .  A
O291        C298   1.258       .  A
C292        C899   1.483       .  S
C292        O299   1.262       .  A
C292        O293   1.257   1_565  A
C294        O296   1.259       .  A
C294        O300   1.264       .  A
C298        C333   1.448       .  S
In301       O303   2.254       .  S
In301       O304   2.228       .  S
In301       O312   2.258       .  S
In301       O306   2.271       .  S
In301       O308   2.293       .  S
In301       O309   2.246       .  S
In301       O310   2.229       .  S
In301       O313   2.262       .  S
C302        O308   1.265       .  A
C302        O310   1.258       .  A
O303        C311   1.260       .  A
O304        C311   1.257       .  A
C305        O312   1.256       .  A
C305        O306   1.261       .  A
C307        C320   1.468       .  S
C307        O309   1.258       .  A
C307        O313   1.264       .  A
C311        C346   1.453       .  S
In314       O316   2.264       .  S
In314       O317   2.227       .  S
In314       O325   2.267       .  S
In314       O319   2.280       .  S
In314       O321   2.303       .  S
In314       O322   2.249       .  S
In314       O323   2.265       .  S
In314       O326   2.266       .  S
C315        C328   1.489       .  S
C315        O321   1.265       .  A
C315        O323   1.261       .  A
O316        C324   1.261       .  A
O317        C324   1.258       .  A
C318        O325   1.255       .  A
C318        O319   1.262       .  A
C320        O322   1.256       .  A
C320        O326   1.263       .  A
In327       O329   2.257       .  S
In327       O330   2.237       .  S
In327       O338   2.271   1_545  S
In327       O332   2.263       .  S
In327       O334   2.302       .  S
In327       O335   2.223       .  S
In327       O336   2.259       .  S
In327       O339   2.245       .  S
C328        O334   1.267       .  A
C328        O336   1.259       .  A
O329        C337   1.265       .  A
O330        C337   1.256       .  A
C331        C881   1.485       .  S
C331        O338   1.256       .  A
C331        O332   1.262   1_565  A
C333        O335   1.256       .  A
C333        O339   1.259       .  A
C337        C350   1.464       .  S
In340       O342   2.258       .  S
In340       O343   2.243       .  S
In340       O351   2.254       .  S
In340       O345   2.266       .  S
In340       O347   2.304       .  S
In340       O348   2.228       .  S
In340       O349   2.224       .  S
In340       O352   2.251       .  S
C341        O347   1.266       .  A
C341        O349   1.256       .  A
O342        C350   1.263       .  A
O343        C350   1.256       .  A
C344        O351   1.255       .  A
C344        O345   1.262       .  A
C346        O348   1.258       .  A
C346        O352   1.260       .  A
C353        C354   1.413       .  A
C353        C358   1.418       .  A
C353        C481   1.481       .  S
C354        C355   1.403       .  A
C354        H359   1.083       .  S
C355        C356   1.404       .  A
C356        C357   1.409       .  A
C356        H360   1.081   1_556  S
C357        C358   1.413       .  A
C357       C1772   1.516       .  S
C358        H361   1.082       .  S
C362        C363   1.423       .  A
C362        C367   1.413       .  A
C362        C520   1.481       .  S
C363        C364   1.412   1_455  A
C363        H368   1.082       .  S
C364        C365   1.408   1_655  A
C364       C1765   1.518       .  S
C365        C366   1.397       .  A
C365        H369   1.076   1_456  S
C366        C367   1.397       .  A
C367        H370   1.083       .  S
C371        C372   1.419       .  A
C371        C376   1.410       .  A
C371        C468   1.478       .  S
C372        C373   1.414       .  A
C372        H377   1.082       .  S
C373        C374   1.411       .  A
C373       C1792   1.519       .  S
C374        C375   1.405       .  A
C374        H378   1.081       .  S
C375        C376   1.400       .  A
C375        C939   1.485   1_556  S
C376        H379   1.083       .  S
C380        C381   1.416       .  A
C380        C385   1.421       .  A
C380        C429   1.482       .  S
C381        C382   1.401       .  A
C381        H386   1.083       .  S
C382        C383   1.397       .  A
C382        C946   1.490   1_556  S
C383        C384   1.406   1_455  A
C383        H387   1.076   1_456  S
C384        C385   1.409   1_655  A
C384       C1781   1.515       .  S
C385        H388   1.082       .  S
C389        C390   1.414       .  A
C389        C394   1.417       .  A
C389        C507   1.483       .  S
C390        C391   1.401       .  A
C390        H395   1.084       .  S
C391        C392   1.406       .  A
C391        C402   1.492       .  S
C392        C393   1.412       .  A
C392        H396   1.082       .  S
C393        C394   1.412       .  A
C393        C585   1.515       .  S
C394        H397   1.082       .  S
C398        C399   1.420       .  A
C398        C403   1.415       .  A
C398        C442   1.480       .  S
C399        C400   1.409       .  A
C399        H404   1.083       .  S
C400        C401   1.406       .  A
C400        C594   1.516       .  S
C401        C402   1.399       .  A
C401        H405   1.076       .  S
C402        C403   1.402       .  A
C403        H406   1.083       .  S
C407        C408   1.416       .  A
C407        C412   1.430       .  A
C407        C455   1.486       .  S
C408        C409   1.397       .  A
C408        H413   1.083       .  S
C409        C410   1.393       .  A
C409        C567   1.489       .  S
C410        C411   1.404       .  A
C410        H414   1.074       .  S
C411        C412   1.414       .  A
C411        C420   1.521       .  S
C412        H415   1.083       .  S
C416        C417   1.410       .  A
C416        C421   1.424       .  A
C416        C494   1.480       .  S
C417        C418   1.397       .  A
C417        H422   1.083       .  S
C418        C419   1.405       .  A
C418        C576   1.486       .  S
C419        C420   1.412       .  A
C419        H423   1.082       .  S
C420        C421   1.416       .  A
C421        H424   1.082       .  S
In425       O427   2.251       .  S
In425       O428   2.232       .  S
In425       O436   2.248       .  S
In425       O430   2.273       .  S
In425       O432   2.287       .  S
In425       O433   2.250       .  S
In425       O434   2.236       .  S
In425       O437   2.262       .  S
C426        C465   1.474       .  S
C426        O432   1.264       .  A
C426        O434   1.258       .  A
O427        C435   1.259       .  A
O428        C435   1.258       .  A
C429        O436   1.256       .  A
C429        O430   1.261       .  A
C431        C444   1.469       .  S
C431        O433   1.258       .  A
C431        O437   1.262       .  A
C435        C522   1.453       .  S
In438       O440   2.246       .  S
In438       O441   2.237       .  S
In438       O443   2.245       .  S
In438       O445   2.300       .  S
In438       O446   2.248       .  S
In438       O447   2.219       .  S
In438       O450   2.256       .  S
In438      O1153   2.270       .  S
C439        C504   1.470       .  S
C439        O445   1.264       .  A
C439        O447   1.254       .  A
O440        C448   1.257       .  A
O441        C448   1.258       .  A
C442        O449   1.259       .  A
C442       O1147   1.258   1_545  A
O443       C1146   1.257       .  A
C444        O446   1.261       .  A
C444        O450   1.265       .  A
C448        C457   1.452       .  S
O449      In1142   2.267   1_545  S
In451       O453   2.255       .  S
In451       O454   2.236       .  S
In451       O456   2.273       .  S
In451       O458   2.299       .  S
In451       O459   2.227       .  S
In451       O460   2.255       .  S
In451       O463   2.245       .  S
In451      O1166   2.266       .  S
C452        C491   1.485       .  S
C452        O458   1.265       .  A
C452        O460   1.259       .  A
O453        C461   1.263       .  A
O454        C461   1.256       .  A
C455        O462   1.254       .  A
C455       O1160   1.263   1_545  A
O456       C1159   1.263       .  A
C457        O459   1.258       .  A
C457        O463   1.261       .  A
C461        C474   1.461       .  S
O462      In1155   2.259   1_545  S
In464       O467   2.234       .  S
In464       O475   2.250       .  S
In464       O469   2.260       .  S
In464       O471   2.290       .  S
In464       O472   2.229       .  S
In464       O473   2.235       .  S
In464       O476   2.237       .  S
In464      O1170   2.249       .  S
C465        O471   1.265       .  A
C465        O473   1.257       .  A
O466      In1168   2.256   1_545  S
O466       C1178   1.265   1_545  A
O467        C474   1.258       .  A
C468        O475   1.255       .  A
C468        O469   1.261       .  A
C470        C487   1.447       .  S
C470        O472   1.258       .  A
C470        O476   1.258       .  A
C474       O1170   1.265       .  A
In477       O479   2.240       .  S
In477       O480   2.230       .  S
In477       O488   2.255       .  S
In477       O482   2.264       .  S
In477       O484   2.294       .  S
In477       O485   2.238       .  S
In477       O486   2.225       .  S
In477       O489   2.254       .  S
C478        C517   1.474       .  S
C478        O484   1.266       .  A
C478        O486   1.257       .  A
O479        C487   1.259       .  A
O480        C487   1.257       .  A
C481        O488   1.257       .  A
C481        O482   1.260       .  A
C483        C496   1.464       .  S
C483        O485   1.257       .  A
C483        O489   1.265       .  A
In490       O492   2.255       .  S
In490       O493   2.228       .  S
In490       O501   2.260       .  S
In490       O495   2.261       .  S
In490       O497   2.303       .  S
In490       O498   2.238       .  S
In490       O499   2.253       .  S
In490       O502   2.262       .  S
C491        O497   1.265       .  A
C491        O499   1.258       .  A
O492        C500   1.260       .  A
O493        C500   1.259       .  A
C494        O501   1.254       .  A
C494        O495   1.262       .  A
C496        O498   1.256       .  A
C496        O502   1.264       .  A
C500        C509   1.457       .  S
In503       O505   2.252       .  S
In503       O506   2.247       .  S
In503       O514   2.251       .  S
In503       O508   2.274       .  S
In503       O510   2.295       .  S
In503       O511   2.230       .  S
In503       O512   2.220       .  S
In503       O515   2.262       .  S
C504        O510   1.265       .  A
C504        O512   1.256       .  A
O505        C513   1.266       .  A
O506        C513   1.260       .  A
C507        O514   1.257       .  A
C507        O508   1.259       .  A
C509        O511   1.256       .  A
C509        O515   1.261       .  A
C513        C526   1.468       .  S
In516       O518   2.265       .  S
In516       O519   2.238       .  S
In516       O527   2.256       .  S
In516       O521   2.266       .  S
In516       O523   2.296       .  S
In516       O524   2.228       .  S
In516       O525   2.228       .  S
In516       O528   2.251       .  S
C517        O523   1.266       .  A
C517        O525   1.257       .  A
O518        C526   1.265       .  A
O519        C526   1.256       .  A
C520        O527   1.256       .  A
C520        O521   1.260       .  A
C522        O524   1.257       .  A
C522        O528   1.260       .  A
C529        C530   1.415       .  A
C529        C534   1.418       .  A
C529        C605   1.482       .  S
C530        C531   1.403       .  A
C530        H535   1.083       .  S
C531        C532   1.404       .  A
C532        C533   1.411       .  A
C532        H536   1.081       .  S
C533        C534   1.412       .  A
C533        C542   1.517       .  S
C534        H537   1.082       .  S
C538        C539   1.412       .  A
C538        C543   1.424       .  A
C538        C631   1.480       .  S
C539        C540   1.396       .  A
C539        H544   1.083       .  S
C540        C541   1.396       .  A
C541        C542   1.405       .  A
C541        H545   1.076       .  S
C542        C543   1.411       .  A
C543        H546   1.082       .  S
C547        C548   1.415       .  A
C547        C552   1.421       .  A
C547        C683   1.484       .  S
C548        C549   1.400       .  A
C548        H553   1.083       .  S
C549        C550   1.397       .  A
C549        C752   1.489       .  S
C550        C551   1.406       .  A
C550        H554   1.076       .  S
C551        C552   1.411       .  A
C551        C560   1.515       .  S
C552        H555   1.082       .  S
C556        C557   1.414       .  A
C556        C561   1.416       .  A
C556        C670   1.480       .  S
C557        C558   1.405       .  A
C557        H562   1.083       .  S
C558        C559   1.404       .  A
C558        C745   1.490       .  S
C559        C560   1.410       .  A
C559        H563   1.081       .  S
C560        C561   1.411       .  A
C561        H564   1.082       .  S
C565        C566   1.411       .  A
C565        C570   1.427       .  A
C565       C1361   1.486       .  S
C566        C567   1.398       .  A
C566        H571   1.083       .  S
C567        C568   1.406       .  A
C568        C569   1.413       .  A
C568        H572   1.081       .  S
C569        C570   1.418       .  A
C569        C578   1.526       .  S
C570        H573   1.082       .  S
C574        C575   1.413       .  A
C574        C579   1.431       .  A
C574        C644   1.488       .  S
C575        C576   1.396       .  A
C575        H580   1.083       .  S
C576        C577   1.394       .  A
C577        C578   1.407       .  A
C577        H581   1.075       .  S
C578        C579   1.417       .  A
C579        H582   1.082       .  S
C583        C584   1.422       .  A
C583        C588   1.415       .  A
C583        C618   1.479       .  S
C584        C585   1.409       .  A
C584        H589   1.083       .  S
C585        C586   1.404       .  A
C586        C587   1.397       .  A
C586        H590   1.076       .  S
C587        C588   1.401       .  A
C587        C596   1.490       .  S
C588        H591   1.083       .  S
C592        C593   1.416       .  A
C592        C597   1.413       .  A
C592        C696   1.481       .  S
C593        C594   1.412       .  A
C593        H598   1.082       .  S
C594        C595   1.412       .  A
C595        C596   1.407       .  A
C595        H599   1.082       .  S
C596        C597   1.400       .  A
C597        H600   1.084       .  S
In601       O603   2.261       .  S
In601       O604   2.251       .  S
In601       O612   2.262       .  S
In601       O606   2.259       .  S
In601       O608   2.286       .  S
In601       O609   2.237       .  S
In601       O610   2.222       .  S
In601       O613   2.248       .  S
C602       C2036   1.470       .  S
C602        O608   1.265       .  A
C602        O610   1.258       .  A
O603        C611   1.263       .  A
O604        C611   1.258       .  A
C605        O612   1.259       .  A
C605        O606   1.259       .  A
C607        C689   1.453       .  S
C607        O609   1.257       .  A
C607        O613   1.258       .  A
C611        C624   1.469       .  S
In614       O616   2.258       .  S
In614       O617   2.247       .  S
In614       O625   2.269       .  S
In614       O619   2.243       .  S
In614       O621   2.289       .  S
In614       O622   2.241       .  S
In614       O623   2.225       .  S
In614       O626   2.242       .  S
C615        C693   1.469       .  S
C615        O621   1.263       .  A
C615        O623   1.256       .  A
O616        C624   1.264       .  A
O617        C624   1.260       .  A
C618        O625   1.261       .  A
C618        O619   1.257       .  A
C620       C2058   1.453   1_455  S
C620        O622   1.259       .  A
C620        O626   1.257       .  A
In627       O629   2.242       .  S
In627       O630   2.230       .  S
In627       O638   2.241       .  S
In627       O632   2.274       .  S
In627       O634   2.294       .  S
In627       O635   2.238       .  S
In627       O636   2.241       .  S
In627       O639   2.260       .  S
C628       C2010   1.477       .  S
C628        O634   1.265       .  A
C628        O636   1.258       .  A
O629        C637   1.260       .  A
O630        C637   1.259       .  A
C631        O638   1.254       .  A
C631        O632   1.262       .  A
C633        C646   1.463       .  S
C633        O635   1.256       .  A
C633        O639   1.264       .  A
C637        C672   1.452       .  S
In640       O642   2.236       .  S
In640       O643   2.231       .  S
In640       O651   2.261       .  S
In640       O645   2.282       .  S
In640       O647   2.295       .  S
In640       O648   2.243       .  S
In640       O649   2.254       .  S
In640       O652   2.258       .  S
C641        C654   1.483       .  S
C641        O647   1.265       .  A
C641        O649   1.259       .  A
O642        C650   1.261       .  A
O643        C650   1.258       .  A
C644        O651   1.254       .  A
C644        O645   1.264       .  A
C646        O648   1.256       .  A
C646        O652   1.263       .  A
C650       C2028   1.450       .  S
In653       O655   2.261       .  S
In653       O656   2.236       .  S
In653       O658   2.258       .  S
In653       O660   2.296       .  S
In653       O661   2.228       .  S
In653       O662   2.253       .  S
In653       O665   2.247       .  S
In653      O1368   2.259       .  S
C654        O660   1.265       .  A
C654        O662   1.259       .  A
O655        C663   1.264       .  A
O656        C663   1.257       .  A
C657       C1269   1.480       .  S
C657        O658   1.262       .  A
C657       O1368   1.255       .  A
C659       C2110   1.452       .  S
C659        O661   1.259       .  A
C659        O665   1.259       .  A
C663        C676   1.464       .  S
O664      In1357   2.269   1_545  S
O664       C1361   1.255       .  A
In666       O668   2.251       .  S
In666       O669   2.244       .  S
In666       O677   2.250       .  S
In666       O671   2.264       .  S
In666       O673   2.284       .  S
In666       O674   2.234       .  S
In666       O675   2.227       .  S
In666       O678   2.247       .  S
C667       C2088   1.471       .  S
C667        O673   1.265       .  A
C667        O675   1.258       .  A
O668        C676   1.264       .  A
O669        C676   1.258       .  A
C670        O677   1.257       .  A
C670        O671   1.260       .  A
C672        O674   1.257       .  A
C672        O678   1.258       .  A
In679       O681   2.246       .  S
In679       O682   2.234       .  S
In679       O690   2.253       .  S
In679       O684   2.274       .  S
In679       O686   2.285       .  S
In679       O687   2.248       .  S
In679       O688   2.237       .  S
In679       O691   2.264       .  S
C680       C2075   1.476       .  S
C680        O686   1.265       .  A
C680        O688   1.259       .  A
O681        C689   1.259       .  A
O682        C689   1.257       .  A
C683        O690   1.257       .  A
C683        O684   1.261       .  A
C685        C698   1.470       .  S
C685        O687   1.257       .  A
C685        O691   1.264       .  A
In692       O694   2.259       .  S
In692       O695   2.228       .  S
In692       O697   2.278       .  S
In692       O699   2.283       .  S
In692       O700   2.244       .  S
In692       O701   2.223       .  S
In692       O704   2.260       .  S
In692      O1407   2.248       .  S
C693        O699   1.265       .  A
C693        O701   1.257       .  A
O694        C702   1.261       .  A
O695        C702   1.256       .  A
C696        O703   1.256       .  A
C696       O1401   1.259   1_545  A
O697       C1400   1.260       .  A
C698        O700   1.259       .  A
C698        O704   1.265       .  A
C702       C2067   1.455       .  S
O703      In1396   2.247   1_545  S
C705        C706   1.431       .  A
C705        C710   1.415       .  A
C706        C707   1.415       .  A
C706        H711   1.082       .  S
C707        C708   1.407       .  A
C707        C716   1.526       .  S
C708        C709   1.395       .  A
C708        H712   1.075       .  S
C709        C710   1.399       .  A
C709        C885   1.490       .  S
C710        H713   1.083       .  S
C714        C715   1.427       .  A
C714        C719   1.413       .  A
C714        C815   1.487       .  S
C715        C716   1.418       .  A
C715        H720   1.082       .  S
C716        C717   1.412       .  A
C717        C718   1.405       .  A
C717        H721   1.081       .  S
C718        C719   1.400       .  A
C718        C892   1.492       .  S
C719        H722   1.083       .  S
C723        C724   1.423       .  A
C723        C728   1.417       .  A
C723        C763   1.485       .  S
C724        C725   1.411       .  A
C724        H729   1.082       .  S
C725        C726   1.408       .  A
C725        C734   1.518       .  S
C726        C727   1.398       .  A
C726        H730   1.076       .  S
C727        C728   1.402       .  A
C727       C1235   1.493       .  S
C728        H731   1.083       .  S
C732        C733   1.419       .  A
C732        C737   1.410       .  A
C732        C828   1.477       .  S
C733        C734   1.414       .  A
C733        H738   1.082       .  S
C734        C735   1.411       .  A
C735        C736   1.404       .  A
C735        H739   1.081       .  S
C736        C737   1.398       .  A
C736       C1244   1.484       .  S
C737        H740   1.083       .  S
C741        C742   1.422       .  A
C741        C746   1.415       .  A
C741        C841   1.481       .  S
C742        C743   1.410       .  A
C742        H747   1.082       .  S
C743        C744   1.409       .  A
C743        C754   1.519       .  S
C744        C745   1.398       .  A
C744        H748   1.076       .  S
C745        C746   1.399       .  A
C746        H749   1.083       .  S
C750        C751   1.413       .  A
C750        C755   1.422       .  A
C750        C789   1.485       .  S
C751        C752   1.402       .  A
C751        H756   1.083       .  S
C752        C753   1.403       .  A
C753        C754   1.410       .  A
C753        H757   1.081       .  S
C754        C755   1.417       .  A
C755        H758   1.082       .  S
In759       O761   2.263       .  S
In759       O762   2.240       .  S
In759       O770   2.253       .  S
In759       O764   2.275       .  S
In759       O766   2.292       .  S
In759       O767   2.239       .  S
In759       O768   2.227       .  S
In759       O771   2.244       .  S
C760       C2233   1.473       .  S
C760        O766   1.265       .  A
C760        O768   1.258       .  A
O761        C769   1.264       .  A
O762        C769   1.257       .  A
C763        O770   1.257       .  A
C763        O764   1.261       .  A
C765        C795   1.454       .  S
C765        O767   1.258       .  A
C765        O771   1.259       .  A
C769        C782   1.468       .  S
In772       O774   2.250       .  S
In772       O775   2.246       .  S
In772       O783   2.263       .  S
In772       O777   2.250       .  S
In772       O779   2.316       .  S
In772       O780   2.231       .  S
In772       O781   2.202       .  S
In772       O784   2.252       .  S
C773        C799   1.470       .  S
C773        O779   1.266       .  A
C773        O781   1.252       .  A
O774        C782   1.265       .  A
O775        C782   1.261       .  A
C776        C872   1.481       .  S
C776        O783   1.260       .  A
C776        O777   1.258       .  A
C778       C2229   1.452   1_455  S
C778        O780   1.258       .  A
C778        O784   1.258       .  A
In785       O787   2.244       .  S
In785       O788   2.241       .  S
In785       O796   2.266       .  S
In785       O790   2.264       .  S
In785       O792   2.289       .  S
In785       O793   2.235       .  S
In785       O794   2.244       .  S
In785       O797   2.250       .  S
C786       C2246   1.476   1_455  S
C786        O792   1.263       .  A
C786        O794   1.258       .  A
O787        C795   1.258       .  A
O788        C795   1.257       .  A
C789        O796   1.257       .  A
C789        O790   1.261       .  A
C791        C804   1.462       .  S
C791        O793   1.259       .  A
C791        O797   1.264       .  A
In798       O800   2.244       .  S
In798       O801   2.224       .  S
In798       O809   2.259       .  S
In798       O803   2.234       .  S
In798       O805   2.310       .  S
In798       O806   2.236       .  S
In798       O807   2.203       .  S
In798       O810   2.251       .  S
C799        O805   1.267       .  A
C799        O807   1.254       .  A
O800        C808   1.259       .  A
O801        C808   1.259       .  A
C802        O809   1.258       .  A
C802        O803   1.260       .  A
C804        O806   1.258       .  A
C804        O810   1.263       .  A
C808       C2264   1.448   1_455  S
In811       O813   2.262       .  S
In811       O814   2.235       .  S
In811       O822   2.274       .  S
In811       O816   2.274       .  S
In811       O818   2.304       .  S
In811       O819   2.247       .  S
In811       O820   2.259       .  S
In811       O823   2.256       .  S
C812        C851   1.489       .  S
C812        O818   1.265       .  A
C812        O820   1.259       .  A
O813        C821   1.261       .  A
O814        C821   1.258       .  A
C815        O822   1.256       .  A
C815        O816   1.262       .  A
C817        C830   1.465       .  S
C817        O819   1.257       .  A
C817        O823   1.263       .  A
C821       C2186   1.460       .  S
In824       O826   2.250       .  S
In824       O827   2.229       .  S
In824       O835   2.252       .  S
In824       O829   2.254       .  S
In824       O831   2.289       .  S
In824       O832   2.238       .  S
In824       O833   2.233       .  S
In824       O836   2.257       .  S
C825       C2168   1.473       .  S
C825        O831   1.264       .  A
C825        O833   1.257       .  A
O826        C834   1.259       .  A
O827        C834   1.258       .  A
C828        O835   1.256       .  A
C828        O829   1.261       .  A
C830        O832   1.258       .  A
C830        O836   1.264       .  A
C834        C843   1.452       .  S
In837       O839   2.256       .  S
In837       O840   2.249       .  S
In837       O848   2.247       .  S
In837       O842   2.269       .  S
In837       O844   2.289       .  S
In837       O845   2.227       .  S
In837       O846   2.230       .  S
In837       O849   2.251       .  S
C838       C2194   1.474       .  S
C838        O844   1.265       .  A
C838        O846   1.258       .  A
O839        C847   1.263       .  A
O840        C847   1.257       .  A
C841        O848   1.256       .  A
C841        O842   1.260       .  A
C843        O845   1.257       .  A
C843        O849   1.260       .  A
C847        C860   1.467       .  S
In850       O852   2.271       .  S
In850       O853   2.242       .  S
In850       O861   2.261       .  S
In850       O855   2.280       .  S
In850       O857   2.306       .  S
In850       O858   2.220       .  S
In850       O859   2.262       .  S
In850       O862   2.251       .  S
C851        O857   1.265       .  A
C851        O859   1.259       .  A
O852        C860   1.263       .  A
O853        C860   1.255       .  A
C854        O861   1.253       .  A
C854        O855   1.264       .  A
C856       C2216   1.454       .  S
C856        O858   1.259       .  A
C856        O862   1.262       .  A
C863        C864   1.415       .  A
C863        C868   1.422       .  A
C864        C865   1.401       .  A
C864        H869   1.083       .  S
C865        C866   1.405       .  A
C865        C876   1.493       .  S
C866        C867   1.411       .  A
C866        H870   1.081       .  S
C867        C868   1.417       .  A
C867        C901   1.522       .  S
C868        H871   1.082       .  S
C872        C873   1.422       .  A
C872        C877   1.416       .  A
C873        C874   1.409       .  A
C873        H878   1.083       .  S
C874        C875   1.406       .  A
C874        C912   1.515       .  S
C875        C876   1.397       .  A
C875        H879   1.075       .  S
C876        C877   1.400       .  A
C877        H880   1.083       .  S
C881        C882   1.427       .  A
C881        C886   1.411       .  A
C882        C883   1.418       .  A
C882        H887   1.082       .  S
C883        C884   1.413       .  A
C883        C894   1.525       .  S
C884        C885   1.405       .  A
C884        H888   1.082       .  S
C885        C886   1.398       .  A
C886        H889   1.083   1_565  S
C890        C891   1.416       .  A
C890        C895   1.431       .  A
C890       C1022   1.489       .  S
C891        C892   1.399       .  A
C891        H896   1.083       .  S
C892        C893   1.395       .  A
C893        C894   1.406       .  A
C893        H897   1.074       .  S
C894        C895   1.416       .  A
C895        H898   1.082       .  S
C899        C900   1.425       .  A
C899        C904   1.415       .  A
C900        C901   1.412       .  A
C900        H905   1.082       .  S
C901        C902   1.409       .  A
C902        C903   1.398       .  A
C902        H906   1.076       .  S
C903        C904   1.400       .  A
C903        C910   1.493       .  S
C904        H907   1.083       .  S
C908        C909   1.416       .  A
C908        C913   1.418       .  A
C908        C957   1.485       .  S
C909        C910   1.402       .  A
C909        H914   1.083       .  S
C910        C911   1.404       .  A
C911        C912   1.411       .  A
C911        H915   1.082       .  S
C912        C913   1.414       .  A
C913        H916   1.082       .  S
C917        C918   1.420       .  A
C917        C922   1.413       .  A
C917       C1009   1.480       .  S
C918        C919   1.410       .  A
C918        H923   1.082       .  S
C919        C920   1.407       .  A
C919       C2338   1.516       .  S
C920        C921   1.399       .  A
C920        H924   1.077   1_554  S
C921        C922   1.399       .  A
C921       C1059   1.488   1_554  S
C922        H925   1.083       .  S
C926        C927   1.416       .  A
C926        C931   1.421       .  A
C926        C970   1.486       .  S
C927        C928   1.405       .  A
C927        H932   1.083       .  S
C928        C929   1.405       .  A
C928       C1070   1.494   1_554  S
C929        C930   1.413   1_455  A
C929        H933   1.081       .  S
C930        C931   1.415   1_655  A
C930       C2327   1.521       .  S
C931        H934   1.082       .  S
C935        C936   1.421       .  A
C935        C940   1.414       .  A
C935       C1048   1.479       .  S
C936        C937   1.408       .  A
C936        H941   1.082       .  S
C937        C938   1.403       .  A
C937       C2356   1.512       .  S
C938        C939   1.396       .  A
C938        H942   1.076   1_554  S
C939        C940   1.399       .  A
C940        H943   1.083       .  S
C944        C945   1.413       .  A
C944        C949   1.418       .  A
C944        C983   1.479       .  S
C945        C946   1.402       .  A
C945        H950   1.083       .  S
C946        C947   1.405       .  A
C947        C948   1.412   1_455  A
C947        H951   1.082   1_455  S
C948        C949   1.411   1_655  A
C948       C2345   1.516       .  S
C949        H952   1.082       .  S
In953       O955   2.260       .  S
In953       O956   2.249       .  S
In953       O964   2.253       .  S
In953       O958   2.281       .  S
In953       O960   2.302       .  S
In953       O961   2.224       .  S
In953       O962   2.230       .  S
In953       O965   2.260       .  S
C954        C993   1.476       .  S
C954        O960   1.265       .  A
C954        O962   1.256       .  A
O955        C963   1.265       .  A
O956        C963   1.260       .  A
C957        O964   1.256       .  A
C957        O958   1.260       .  A
C959       C1028   1.454       .  S
C959        O961   1.257       .  A
C959        O965   1.260       .  A
C963        C976   1.471       .  S
In966       O968   2.266       .  S
In966       O969   2.248       .  S
In966       O977   2.266       .  S
In966       O971   2.268       .  S
In966       O973   2.293       .  S
In966       O974   2.232       .  S
In966       O975   2.233       .  S
In966       O978   2.246       .  S
C967       C1006   1.476       .  S
C967        O973   1.265       .  A
C967        O975   1.258       .  A
O968        C976   1.264       .  A
O969        C976   1.258       .  A
C970        O977   1.258       .  A
C970        O971   1.260       .  A
C972        C989   1.450       .  S
C972        O974   1.257       .  A
C972        O978   1.258       .  A
In979       O981   2.244       .  S
In979       O982   2.232       .  S
In979       O990   2.249       .  S
In979       O984   2.260       .  S
In979       O986   2.289       .  S
In979       O987   2.240       .  S
In979       O988   2.229       .  S
In979       O991   2.251       .  S
C980       C1045   1.472       .  S
C980        O986   1.265       .  A
C980        O988   1.257       .  A
O981        C989   1.258       .  A
O982        C989   1.258       .  A
C983        O990   1.257       .  A
C983        O984   1.261       .  A
C985        C998   1.463       .  S
C985        O987   1.258       .  A
C985        O991   1.263       .  A
In992       O994   2.237       .  S
In992       O995   2.226       .  S
In992      O1003   2.263       .  S
In992       O997   2.246       .  S
In992       O999   2.308       .  S
In992      O1000   2.234       .  S
In992      O1001   2.228       .  S
In992      O1004   2.255       .  S
C993        O999   1.265       .  A
C993       O1001   1.255       .  A
O994       C1002   1.258       .  A
O995       C1002   1.259       .  A
C996       O1003   1.257       .  A
C996        O997   1.259       .  A
C998       O1000   1.259       .  A
C998       O1004   1.265       .  A
C1002      C1037   1.447       .  S
In1005     O1007   2.243       .  S
In1005     O1008   2.228       .  S
In1005     O1016   2.242       .  S
In1005     O1010   2.271       .  S
In1005     O1012   2.292       .  S
In1005     O1013   2.245       .  S
In1005     O1014   2.235       .  S
In1005     O1017   2.260       .  S
C1006      O1012   1.265       .  A
C1006      O1014   1.258       .  A
O1007      C1015   1.260       .  A
O1008      C1015   1.258       .  A
C1009      O1016   1.255       .  A
C1009      O1010   1.261       .  A
C1011      C1024   1.466       .  S
C1011      O1013   1.256       .  A
C1011      O1017   1.264       .  A
C1015      C1050   1.451       .  S
In1018     O1020   2.255       .  S
In1018     O1021   2.220       .  S
In1018     O1029   2.263       .  S
In1018     O1023   2.284       .  S
In1018     O1025   2.303       .  S
In1018     O1026   2.243       .  S
In1018     O1027   2.259       .  S
In1018     O1030   2.267       .  S
C1019      C1032   1.487       .  S
C1019      O1025   1.265       .  A
C1019      O1027   1.260       .  A
O1020      C1028   1.261       .  A
O1021      C1028   1.258       .  A
C1022      O1029   1.254       .  A
C1022      O1023   1.263       .  A
C1024      O1026   1.255       .  A
C1024      O1030   1.264       .  A
In1031     O1033   2.255       .  S
In1031     O1034   2.240       .  S
In1031     O1042   2.265       .  S
In1031     O1036   2.273       .  S
In1031     O1038   2.301       .  S
In1031     O1039   2.224       .  S
In1031     O1040   2.254       .  S
In1031     O1043   2.243       .  S
C1032      O1038   1.267       .  A
C1032      O1040   1.259       .  A
O1033      C1041   1.264       .  A
O1034      C1041   1.257       .  A
C1035      O1042   1.254       .  A
C1035      O1036   1.262       .  A
C1037      O1039   1.256       .  A
C1037      O1043   1.260       .  A
C1041      C1054   1.464       .  S
In1044     O1046   2.262       .  S
In1044     O1047   2.239       .  S
In1044     O1055   2.234       .  S
In1044     O1049   2.276       .  S
In1044     O1051   2.291       .  S
In1044     O1052   2.228       .  S
In1044     O1053   2.232       .  S
In1044     O1056   2.242       .  S
C1045      O1051   1.265       .  A
C1045      O1053   1.257       .  A
O1046      C1054   1.264       .  A
O1047      C1054   1.256       .  A
C1048      O1055   1.254       .  A
C1048      O1049   1.262       .  A
C1050      O1052   1.259       .  A
C1050      O1056   1.260       .  A
C1057      C1058   1.414       .  A
C1057      C1062   1.420       .  A
C1057      C1185   1.483       .  S
C1058      C1059   1.404       .  A
C1058      H1063   1.083       .  S
C1059      C1060   1.403       .  A
C1060      C1061   1.410       .  A
C1060      H1064   1.081   1_556  S
C1061      C1062   1.413       .  A
C1061      C2476   1.518       .  S
C1062      H1065   1.082       .  S
C1066      C1067   1.421       .  A
C1066      C1071   1.419       .  A
C1066      C1224   1.486       .  S
C1067      C1068   1.410   1_455  A
C1067      H1072   1.082       .  S
C1068      C1069   1.407   1_655  A
C1068      C2469   1.516       .  S
C1069      C1070   1.397       .  A
C1069      H1073   1.076   1_456  S
C1070      C1071   1.404       .  A
C1071      H1074   1.083       .  S
C1075      C1076   1.419       .  A
C1075      C1080   1.412       .  A
C1075      C1172   1.481       .  S
C1076      C1077   1.413       .  A
C1076      H1081   1.082       .  S
C1077      C1078   1.410       .  A
C1077      C2496   1.516       .  S
C1078      C1079   1.404       .  A
C1078      H1082   1.082   1_556  S
C1079      C1080   1.402       .  A
C1080      H1083   1.083   1_565  S
C1084      C1085   1.415       .  A
C1084      C1089   1.420   1_545  A
C1084      C1133   1.480       .  S
C1085      C1086   1.400       .  A
C1085      H1090   1.083       .  S
C1086      C1087   1.399   1_545  A
C1087      C1088   1.408   1_455  A
C1087      H1091   1.076   1_456  S
C1088      C1089   1.409   1_655  A
C1088      C2485   1.516       .  S
C1089      H1092   1.082       .  S
C1093      C1094   1.413       .  A
C1093      C1098   1.419       .  A
C1093      C1211   1.483       .  S
C1094      C1095   1.400       .  A
C1094      H1099   1.084       .  S
C1095      C1096   1.406       .  A
C1095      C1106   1.491       .  S
C1096      C1097   1.411       .  A
C1096      H1100   1.082       .  S
C1097      C1098   1.414       .  A
C1097      C1289   1.518       .  S
C1098      H1101   1.082       .  S
C1102      C1103   1.423       .  A
C1102      C1107   1.415       .  A
C1102      C1146   1.480       .  S
C1103      C1104   1.410       .  A
C1103      H1108   1.083       .  S
C1104      C1105   1.406       .  A
C1104      C1298   1.517       .  S
C1105      C1106   1.398       .  A
C1105      H1109   1.075       .  S
C1106      C1107   1.400       .  A
C1107      H1110   1.083       .  S
C1111      C1112   1.412       .  A
C1111      C1116   1.430       .  A
C1111      C1159   1.486       .  S
C1112      C1113   1.394       .  A
C1112      H1117   1.083       .  S
C1113      C1114   1.393       .  A
C1113      C1271   1.484       .  S
C1114      C1115   1.405       .  A
C1114      H1118   1.075       .  S
C1115      C1116   1.418       .  A
C1115      C1124   1.523       .  S
C1116      H1119   1.082       .  S
C1120      C1121   1.410       .  A
C1120      C1125   1.424       .  A
C1120      C1198   1.482       .  S
C1121      C1122   1.398       .  A
C1121      H1126   1.083       .  S
C1122      C1123   1.406       .  A
C1122      C1280   1.488       .  S
C1123      C1124   1.413       .  A
C1123      H1127   1.082       .  S
C1124      C1125   1.415       .  A
C1125      H1128   1.082       .  S
In1129     O1131   2.249       .  S
In1129     O1132   2.227       .  S
In1129     O1140   2.244       .  S
In1129     O1134   2.269   1_565  S
In1129     O1136   2.291   1_565  S
In1129     O1137   2.242       .  S
In1129     O1138   2.229       .  S
In1129     O1141   2.264   1_565  S
C1130      C1169   1.473       .  S
C1130      O1136   1.265   1_565  A
C1130      O1138   1.258       .  A
O1131      C1139   1.259       .  A
O1132      C1139   1.258       .  A
C1133      O1140   1.256   1_545  A
C1133      O1134   1.260       .  A
C1135      C1148   1.467       .  S
C1135      O1137   1.256       .  A
C1135      O1141   1.264   1_565  A
C1139      C1226   1.452       .  S
In1142     O1144   2.252       .  S
In1142     O1145   2.238       .  S
In1142     O1147   2.250       .  S
In1142     O1149   2.299       .  S
In1142     O1150   2.243   1_565  S
In1142     O1151   2.217       .  S
In1142     O1154   2.251       .  S
C1143      C1208   1.470       .  S
C1143      O1149   1.265       .  A
C1143      O1151   1.255       .  A
O1144      C1152   1.258       .  A
O1145      C1152   1.257       .  A
C1146      O1153   1.261       .  A
C1148      O1150   1.260   1_565  A
C1148      O1154   1.265       .  A
C1152      C1161   1.454       .  S
In1155     O1157   2.259       .  S
In1155     O1158   2.251   1_565  S
In1155     O1160   2.279       .  S
In1155     O1162   2.299       .  S
In1155     O1163   2.231       .  S
In1155     O1164   2.257       .  S
In1155     O1167   2.247       .  S
C1156      C1195   1.484       .  S
C1156      O1162   1.265       .  A
C1156      O1164   1.258       .  A
O1157      C1165   1.262       .  A
O1158      C1165   1.256   1_545  A
C1159      O1166   1.254       .  A
C1161      O1163   1.259       .  A
C1161      O1167   1.261       .  A
C1165      C1178   1.465       .  S
In1168     O1171   2.233       .  S
In1168     O1179   2.255       .  S
In1168     O1173   2.266   1_565  S
In1168     O1175   2.293   1_565  S
In1168     O1176   2.230       .  S
In1168     O1177   2.228       .  S
In1168     O1180   2.245       .  S
C1169      O1175   1.265   1_565  A
C1169      O1177   1.257       .  A
O1171      C1178   1.258       .  A
C1172      O1179   1.256       .  A
C1172      O1173   1.261   1_565  A
C1174      C1191   1.449       .  S
C1174      O1176   1.257       .  A
C1174      O1180   1.259       .  A
In1181     O1183   2.243       .  S
In1181     O1184   2.231       .  S
In1181     O1192   2.254       .  S
In1181     O1186   2.271       .  S
In1181     O1188   2.292       .  S
In1181     O1189   2.242       .  S
In1181     O1190   2.229       .  S
In1181     O1193   2.258       .  S
C1182      C1221   1.473       .  S
C1182      O1188   1.265       .  A
C1182      O1190   1.257       .  A
O1183      C1191   1.259       .  A
O1184      C1191   1.257       .  A
C1185      O1192   1.256       .  A
C1185      O1186   1.261       .  A
C1187      C1200   1.465       .  S
C1187      O1189   1.258       .  A
C1187      O1193   1.264       .  A
In1194     O1196   2.256       .  S
In1194     O1197   2.229       .  S
In1194     O1205   2.261       .  S
In1194     O1199   2.266       .  S
In1194     O1201   2.297       .  S
In1194     O1202   2.241       .  S
In1194     O1203   2.253       .  S
In1194     O1206   2.257       .  S
C1195      O1201   1.265       .  A
C1195      O1203   1.260       .  A
O1196      C1204   1.259       .  A
O1197      C1204   1.258       .  A
C1198      O1205   1.255       .  A
C1198      O1199   1.262       .  A
C1200      O1202   1.257       .  A
C1200      O1206   1.264       .  A
C1204      C1213   1.455       .  S
In1207     O1209   2.259       .  S
In1207     O1210   2.249       .  S
In1207     O1218   2.254       .  S
In1207     O1212   2.271       .  S
In1207     O1214   2.291       .  S
In1207     O1215   2.231       .  S
In1207     O1216   2.219       .  S
In1207     O1219   2.259       .  S
C1208      O1214   1.265       .  A
C1208      O1216   1.257       .  A
O1209      C1217   1.265       .  A
O1210      C1217   1.260       .  A
C1211      O1218   1.258       .  A
C1211      O1212   1.258       .  A
C1213      O1215   1.256       .  A
C1213      O1219   1.260       .  A
C1217      C1230   1.471       .  S
In1220     O1222   2.262       .  S
In1220     O1223   2.249       .  S
In1220     O1231   2.255       .  S
In1220     O1225   2.276       .  S
In1220     O1227   2.288       .  S
In1220     O1228   2.229       .  S
In1220     O1229   2.229       .  S
In1220     O1232   2.254       .  S
C1221      O1227   1.264       .  A
C1221      O1229   1.258       .  A
O1222      C1230   1.264       .  A
O1223      C1230   1.259       .  A
C1224      O1231   1.258       .  A
C1224      O1225   1.260       .  A
C1226      O1228   1.257       .  A
C1226      O1232   1.259       .  A
C1233      C1234   1.416       .  A
C1233      C1238   1.418       .  A
C1233      C1309   1.486       .  S
C1234      C1235   1.406       .  A
C1234      H1239   1.083       .  S
C1235      C1236   1.404       .  A
C1236      C1237   1.411       .  A
C1236      H1240   1.082       .  S
C1237      C1238   1.413       .  A
C1237      C1246   1.516       .  S
C1238      H1241   1.082       .  S
C1242      C1243   1.412       .  A
C1242      C1247   1.423       .  A
C1242      C1335   1.480       .  S
C1243      C1244   1.398       .  A
C1243      H1248   1.083       .  S
C1244      C1245   1.396       .  A
C1245      C1246   1.405       .  A
C1245      H1249   1.076       .  S
C1246      C1247   1.410       .  A
C1247      H1250   1.082       .  S
C1251      C1252   1.417       .  A
C1251      C1256   1.422   1_545  A
C1251      C1387   1.485       .  S
C1252      C1253   1.402       .  A
C1252      H1257   1.083       .  S
C1253      C1254   1.399   1_545  A
C1254      C1255   1.411       .  A
C1254      H1258   1.076       .  S
C1255      C1256   1.410       .  A
C1255      C1264   1.520       .  S
C1256      H1259   1.082       .  S
C1260      C1261   1.414       .  A
C1260      C1265   1.422   1_545  A
C1260      C1374   1.484       .  S
C1261      C1262   1.403   1_545  A
C1261      H1266   1.083       .  S
C1262      C1263   1.402       .  A
C1263      C1264   1.408       .  A
C1263      H1267   1.081       .  S
C1264      C1265   1.416       .  A
C1265      H1268   1.082       .  S
C1269      C1270   1.408       .  A
C1269      C1274   1.425       .  A
C1270      C1271   1.396       .  A
C1270      H1275   1.083       .  S
C1271      C1272   1.405       .  A
C1272      C1273   1.413       .  A
C1272      H1276   1.082       .  S
C1273      C1274   1.416       .  A
C1273      C1282   1.523       .  S
C1274      H1277   1.082       .  S
C1278      C1279   1.415       .  A
C1278      C1283   1.430       .  A
C1278      C1348   1.489       .  S
C1279      C1280   1.397       .  A
C1279      H1284   1.083       .  S
C1280      C1281   1.393       .  A
C1281      C1282   1.405       .  A
C1281      H1285   1.075       .  S
C1282      C1283   1.417       .  A
C1283      H1286   1.082       .  S
C1287      C1288   1.423       .  A
C1287      C1292   1.416       .  A
C1287      C1322   1.482       .  S
C1288      C1289   1.410       .  A
C1288      H1293   1.083       .  S
C1289      C1290   1.407       .  A
C1290      C1291   1.398       .  A
C1290      H1294   1.076       .  S
C1291      C1292   1.402       .  A
C1291      C1300   1.493       .  S
C1292      H1295   1.083       .  S
C1296      C1297   1.417       .  A
C1296      C1301   1.415       .  A
C1296      C1400   1.483       .  S
C1297      C1298   1.412       .  A
C1297      H1302   1.082       .  S
C1298      C1299   1.412       .  A
C1299      C1300   1.406       .  A
C1299      H1303   1.082       .  S
C1300      C1301   1.401       .  A
C1301      H1304   1.083       .  S
In1305     O1307   2.265       .  S
In1305     O1308   2.251       .  S
In1305     O1316   2.266       .  S
In1305     O1310   2.271       .  S
In1305     O1312   2.286       .  S
In1305     O1313   2.233       .  S
In1305     O1314   2.235       .  S
In1305     O1317   2.243       .  S
C1306      C2740   1.476       .  S
C1306      O1312   1.266       .  A
C1306      O1314   1.259       .  A
O1307      C1315   1.264       .  A
O1308      C1315   1.258       .  A
C1309      O1316   1.259       .  A
C1309      O1310   1.260       .  A
C1311      C1393   1.449       .  S
C1311      O1313   1.257       .  A
C1311      O1317   1.258       .  A
C1315      C1328   1.472       .  S
In1318     O1320   2.262       .  S
In1318     O1321   2.253       .  S
In1318     O1329   2.274       .  S
In1318     O1323   2.248       .  S
In1318     O1325   2.296       .  S
In1318     O1326   2.240       .  S
In1318     O1327   2.226       .  S
In1318     O1330   2.238       .  S
C1319      C1397   1.470       .  S
C1319      O1325   1.263       .  A
C1319      O1327   1.255       .  A
O1320      C1328   1.264       .  A
O1321      C1328   1.260       .  A
C1322      O1329   1.261       .  A
C1322      O1323   1.257       .  A
C1324      C2762   1.451   1_455  S
C1324      O1326   1.259       .  A
C1324      O1330   1.257       .  A
In1331     O1333   2.245       .  S
In1331     O1334   2.234       .  S
In1331     O1342   2.237       .  S
In1331     O1336   2.274       .  S
In1331     O1338   2.288       .  S
In1331     O1339   2.243       .  S
In1331     O1340   2.228       .  S
In1331     O1343   2.258       .  S
C1332      C2714   1.472       .  S
C1332      O1338   1.265       .  A
C1332      O1340   1.257       .  A
O1333      C1341   1.259       .  A
O1334      C1341   1.259       .  A
C1335      O1342   1.255       .  A
C1335      O1336   1.262       .  A
C1337      C1350   1.465       .  S
C1337      O1339   1.257       .  A
C1337      O1343   1.263       .  A
C1341      C1376   1.453       .  S
In1344     O1346   2.241       .  S
In1344     O1347   2.233       .  S
In1344     O1355   2.266       .  S
In1344     O1349   2.280       .  S
In1344     O1351   2.306       .  S
In1344     O1352   2.246       .  S
In1344     O1353   2.255       .  S
In1344     O1356   2.262       .  S
C1345      C1358   1.487       .  S
C1345      O1351   1.265       .  A
C1345      O1353   1.258       .  A
O1346      C1354   1.261       .  A
O1347      C1354   1.259       .  A
C1348      O1355   1.255       .  A
C1348      O1349   1.263       .  A
C1350      O1352   1.256       .  A
C1350      O1356   1.262       .  A
C1354      C2732   1.452       .  S
In1357     O1359   2.267       .  S
In1357     O1360   2.247   1_565  S
In1357     O1362   2.270       .  S
In1357     O1364   2.308       .  S
In1357     O1365   2.227       .  S
In1357     O1366   2.252       .  S
In1357     O1369   2.253       .  S
C1358      O1364   1.266       .  A
C1358      O1366   1.259       .  A
O1359      C1367   1.264       .  A
O1360      C1367   1.257   1_545  A
C1361      O1362   1.262   1_545  A
C1363      C2814   1.453       .  S
C1363      O1365   1.258       .  A
C1363      O1369   1.259       .  A
C1367      C1380   1.470       .  S
In1370     O1372   2.264   1_565  S
In1370     O1373   2.247       .  S
In1370     O1381   2.262       .  S
In1370     O1375   2.272   1_565  S
In1370     O1377   2.292   1_565  S
In1370     O1378   2.235       .  S
In1370     O1379   2.236       .  S
In1370     O1382   2.249       .  S
C1371      C2792   1.475       .  S
C1371      O1377   1.265   1_565  A
C1371      O1379   1.258       .  A
O1372      C1380   1.265   1_545  A
O1373      C1380   1.258       .  A
C1374      O1381   1.257   1_545  A
C1374      O1375   1.261       .  A
C1376      O1378   1.257       .  A
C1376      O1382   1.259       .  A
In1383     O1385   2.238       .  S
In1383     O1386   2.233       .  S
In1383     O1394   2.249       .  S
In1383     O1388   2.275   1_565  S
In1383     O1390   2.287   1_565  S
In1383     O1391   2.245       .  S
In1383     O1392   2.231       .  S
In1383     O1395   2.266   1_565  S
C1384      C2779   1.472       .  S
C1384      O1390   1.265   1_565  A
C1384      O1392   1.257       .  A
O1385      C1393   1.258       .  A
O1386      C1393   1.258       .  A
C1387      O1394   1.257   1_545  A
C1387      O1388   1.261       .  A
C1389      C1402   1.469       .  S
C1389      O1391   1.257       .  A
C1389      O1395   1.264   1_565  A
In1396     O1398   2.261       .  S
In1396     O1399   2.221       .  S
In1396     O1401   2.275       .  S
In1396     O1403   2.286       .  S
In1396     O1404   2.245   1_565  S
In1396     O1405   2.225       .  S
In1396     O1408   2.254       .  S
C1397      O1403   1.265       .  A
C1397      O1405   1.257       .  A
O1398      C1406   1.261       .  A
O1399      C1406   1.255       .  A
C1400      O1407   1.256       .  A
C1402      O1404   1.260   1_565  A
C1402      O1408   1.265       .  A
C1406      C2771   1.453       .  S
C1409      C1410   1.430       .  A
C1409      C1414   1.414       .  A
C1409      C2262   1.485       .  S
C1410      C1411   1.415       .  A
C1410      H1415   1.082       .  S
C1411      C1412   1.408       .  A
C1411      C1420   1.526       .  S
C1412      C1413   1.396       .  A
C1412      H1416   1.075       .  S
C1413      C1414   1.397       .  A
C1413      C1589   1.490       .  S
C1414      H1417   1.083       .  S
C1418      C1419   1.427       .  A
C1418      C1423   1.413       .  A
C1418      C1519   1.487       .  S
C1419      C1420   1.419       .  A
C1419      H1424   1.082       .  S
C1420      C1421   1.411       .  A
C1421      C1422   1.404       .  A
C1421      H1425   1.081       .  S
C1422      C1423   1.401       .  A
C1422      C1596   1.491       .  S
C1423      H1426   1.083       .  S
C1427      C1428   1.422       .  A
C1427      C1432   1.417       .  A
C1427      C1467   1.486       .  S
C1428      C1429   1.410       .  A
C1428      H1433   1.082       .  S
C1429      C1430   1.406       .  A
C1429      C1438   1.516       .  S
C1430      C1431   1.397       .  A
C1430      H1434   1.076       .  S
C1431      C1432   1.402       .  A
C1431      C1939   1.492       .  S
C1432      H1435   1.083       .  S
C1436      C1437   1.419       .  A
C1436      C1441   1.411       .  A
C1436      C1532   1.478       .  S
C1437      C1438   1.413       .  A
C1437      H1442   1.082       .  S
C1438      C1439   1.409       .  A
C1439      C1440   1.403       .  A
C1439      H1443   1.081       .  S
C1440      C1441   1.400       .  A
C1440      C1948   1.483       .  S
C1441      H1444   1.083       .  S
C1445      C1446   1.422       .  A
C1445      C1450   1.415       .  A
C1445      C1545   1.481       .  S
C1446      C1447   1.410       .  A
C1446      H1451   1.082       .  S
C1447      C1448   1.408       .  A
C1447      C1458   1.518       .  S
C1448      C1449   1.398       .  A
C1448      H1452   1.076       .  S
C1449      C1450   1.399       .  A
C1449      C2670   1.490   1_545  S
C1450      H1453   1.083   1_545  S
C1454      C1455   1.414       .  A
C1454      C1459   1.421       .  A
C1454      C1493   1.484       .  S
C1455      C1456   1.403       .  A
C1455      H1460   1.083       .  S
C1456      C1457   1.403       .  A
C1456      C2661   1.489       .  S
C1457      C1458   1.410       .  A
C1457      H1461   1.081       .  S
C1458      C1459   1.415       .  A
C1459      H1462   1.082       .  S
In1463     O1465   2.267       .  S
In1463     O1466   2.239       .  S
In1463     O1474   2.252       .  S
In1463     O1468   2.280       .  S
In1463     O1470   2.294       .  S
In1463     O1471   2.237       .  S
In1463     O1472   2.228       .  S
In1463     O1475   2.246       .  S
C1464      O1470   1.265       .  A
C1464      O1472   1.257       .  A
O1465      C1473   1.265       .  A
O1466      C1473   1.257       .  A
C1467      O1474   1.256       .  A
C1467      O1468   1.261       .  A
C1469      C1499   1.453       .  S
C1469      O1471   1.258       .  A
C1469      O1475   1.259       .  A
C1473      C1486   1.469       .  S
In1476     O1478   2.249       .  S
In1476     O1479   2.252       .  S
In1476     O1487   2.262       .  S
In1476     O1481   2.249       .  S
In1476     O1483   2.302       .  S
In1476     O1484   2.241       .  S
In1476     O1485   2.210       .  S
In1476     O1488   2.243       .  S
C1477      C1503   1.468       .  S
C1477      O1483   1.265       .  A
C1477      O1485   1.253       .  A
O1478      C1486   1.265       .  A
O1479      C1486   1.261       .  A
C1480      C1576   1.479       .  S
C1480      O1487   1.260       .  A
C1480      O1481   1.257       .  A
C1482      O1484   1.258       .  A
C1482      O1488   1.258       .  A
In1489     O1491   2.247       .  S
In1489     O1492   2.238       .  S
In1489     O1500   2.262       .  S
In1489     O1494   2.267       .  S
In1489     O1496   2.291       .  S
In1489     O1497   2.239       .  S
In1489     O1498   2.237       .  S
In1489     O1501   2.251       .  S
C1490      O1496   1.264       .  A
C1490      O1498   1.258       .  A
O1491      C1499   1.258       .  A
O1492      C1499   1.257       .  A
C1493      O1500   1.257       .  A
C1493      O1494   1.261       .  A
C1495      C1508   1.464       .  S
C1495      O1497   1.259       .  A
C1495      O1501   1.264       .  A
In1502     O1504   2.238       .  S
In1502     O1505   2.235       .  S
In1502     O1513   2.262   1_545  S
In1502     O1507   2.236       .  S
In1502     O1509   2.298       .  S
In1502     O1510   2.240       .  S
In1502     O1511   2.212       .  S
In1502     O1514   2.252       .  S
C1503      O1509   1.265       .  A
C1503      O1511   1.255       .  A
O1504      C1512   1.257       .  A
O1505      C1512   1.259       .  A
C1506      C2271   1.474       .  S
C1506      O1513   1.257       .  A
C1506      O1507   1.259   1_565  A
C1508      O1510   1.259       .  A
C1508      O1514   1.263       .  A
In1515     O1517   2.264       .  S
In1515     O1518   2.234       .  S
In1515     O1526   2.273       .  S
In1515     O1520   2.274       .  S
In1515     O1522   2.293       .  S
In1515     O1523   2.248       .  S
In1515     O1524   2.264       .  S
In1515     O1527   2.260       .  S
C1516      C1555   1.487       .  S
C1516      O1522   1.264       .  A
C1516      O1524   1.260       .  A
O1517      C1525   1.260   1_655  A
O1518      C1525   1.258   1_655  A
C1519      O1526   1.256       .  A
C1519      O1520   1.262       .  A
C1521      C1534   1.466       .  S
C1521      O1523   1.257       .  A
C1521      O1527   1.262       .  A
In1528     O1530   2.253       .  S
In1528     O1531   2.229       .  S
In1528     O1539   2.253       .  S
In1528     O1533   2.256       .  S
In1528     O1535   2.284       .  S
In1528     O1536   2.242       .  S
In1528     O1537   2.231       .  S
In1528     O1540   2.256       .  S
C1529      O1535   1.264   1_455  A
C1529      O1537   1.257   1_455  A
O1530      C1538   1.259       .  A
O1531      C1538   1.257       .  A
C1532      O1539   1.257       .  A
C1532      O1533   1.260       .  A
C1534      O1536   1.259       .  A
C1534      O1540   1.264       .  A
C1538      C1547   1.453       .  S
In1541     O1543   2.257       .  S
In1541     O1544   2.252       .  S
In1541     O1552   2.251       .  S
In1541     O1546   2.268       .  S
In1541     O1548   2.289       .  S
In1541     O1549   2.228       .  S
In1541     O1550   2.227       .  S
In1541     O1553   2.255       .  S
C1542      O1548   1.265   1_455  A
C1542      O1550   1.258   1_455  A
O1543      C1551   1.263       .  A
O1544      C1551   1.258       .  A
C1545      O1552   1.256       .  A
C1545      O1546   1.260       .  A
C1547      O1549   1.256       .  A
C1547      O1553   1.259       .  A
C1551      C1564   1.469       .  S
In1554     O1556   2.272       .  S
In1554     O1557   2.245       .  S
In1554     O1565   2.265   1_545  S
In1554     O1559   2.281       .  S
In1554     O1561   2.297       .  S
In1554     O1562   2.224       .  S
In1554     O1563   2.266       .  S
In1554     O1566   2.248       .  S
C1555      O1561   1.265       .  A
C1555      O1563   1.259       .  A
O1556      C1564   1.264       .  A
O1557      C1564   1.256       .  A
C1558      C2113   1.489       .  S
C1558      O1565   1.254       .  A
C1558      O1559   1.263   1_565  A
C1560      O1562   1.258   1_455  A
C1560      O1566   1.261   1_455  A
C1567      C1568   1.416       .  A
C1567      C1572   1.422       .  A
C1567      C2210   1.489       .  S
C1568      C1569   1.402       .  A
C1568      H1573   1.083       .  S
C1569      C1570   1.405       .  A
C1569      C1580   1.493       .  S
C1570      C1571   1.410       .  A
C1570      H1574   1.082       .  S
C1571      C1572   1.417       .  A
C1571      C1605   1.521       .  S
C1572      H1575   1.082       .  S
C1576      C1577   1.422       .  A
C1576      C1581   1.416       .  A
C1577      C1578   1.409       .  A
C1577      H1582   1.083       .  S
C1578      C1579   1.407       .  A
C1578      C1616   1.516       .  S
C1579      C1580   1.398       .  A
C1579      H1583   1.075       .  S
C1580      C1581   1.400       .  A
C1581      H1584   1.083       .  S
C1585      C1586   1.428       .  A
C1585      C1590   1.412       .  A
C1585      C2443   1.488       .  S
C1586      C1587   1.419       .  A
C1586      H1591   1.082       .  S
C1587      C1588   1.412       .  A
C1587      C1598   1.525       .  S
C1588      C1589   1.404       .  A
C1588      H1592   1.082       .  S
C1589      C1590   1.399       .  A
C1590      H1593   1.083       .  S
C1594      C1595   1.416       .  A
C1594      C1599   1.430       .  A
C1594      C1726   1.487       .  S
C1595      C1596   1.398       .  A
C1595      H1600   1.083       .  S
C1596      C1597   1.395       .  A
C1597      C1598   1.407       .  A
C1597      H1601   1.074       .  S
C1598      C1599   1.415       .  A
C1599      H1602   1.082       .  S
C1603      C1604   1.424       .  A
C1603      C1608   1.415       .  A
C1603      C2404   1.482       .  S
C1604      C1605   1.411       .  A
C1604      H1609   1.083       .  S
C1605      C1606   1.410       .  A
C1606      C1607   1.399       .  A
C1606      H1610   1.076       .  S
C1607      C1608   1.400       .  A
C1607      C1614   1.494       .  S
C1608      H1611   1.083       .  S
C1612      C1613   1.417       .  A
C1612      C1617   1.419       .  A
C1612      C1661   1.488       .  S
C1613      C1614   1.404       .  A
C1613      H1618   1.083       .  S
C1614      C1615   1.404       .  A
C1615      C1616   1.410       .  A
C1615      H1619   1.082       .  S
C1616      C1617   1.414       .  A
C1617      H1620   1.082       .  S
C1621      C1622   1.420       .  A
C1621      C1626   1.414       .  A
C1621      C1713   1.479       .  S
C1622      C1623   1.408       .  A
C1622      H1627   1.082       .  S
C1623      C1624   1.408       .  A
C1624      C1625   1.399       .  A
C1624      H1628   1.076   1_554  S
C1625      C1626   1.399       .  A
C1625      C1763   1.488   1_554  S
C1626      H1629   1.083       .  S
C1630      C1631   1.417       .  A
C1630      C1635   1.421       .  A
C1630      C1674   1.487       .  S
C1631      C1632   1.406       .  A
C1631      H1636   1.083       .  S
C1632      C1633   1.405       .  A
C1632      C1774   1.496   1_554  S
C1633      C1634   1.412       .  A
C1633      H1637   1.081       .  S
C1634      C1635   1.414       .  A
C1635      H1638   1.082       .  S
C1639      C1640   1.420       .  A
C1639      C1644   1.411   1_545  A
C1639      C1752   1.473       .  S
C1640      C1641   1.407       .  A
C1640      H1645   1.082       .  S
C1641      C1642   1.405       .  A
C1642      C1643   1.398       .  A
C1642      H1646   1.076   1_554  S
C1643      C1644   1.396   1_545  A
C1643      C2487   1.483   1_544  S
C1644      H1647   1.083       .  S
C1648      C1649   1.413       .  A
C1648      C1653   1.419       .  A
C1648      C1687   1.481       .  S
C1649      C1650   1.402       .  A
C1649      H1654   1.083       .  S
C1650      C1651   1.405       .  A
C1650      C2494   1.490   1_554  S
C1651      C1652   1.412       .  A
C1651      H1655   1.082       .  S
C1652      C1653   1.412       .  A
C1653      H1656   1.082       .  S
In1657     O1659   2.260       .  S
In1657     O1660   2.252       .  S
In1657     O1668   2.260       .  S
In1657     O1662   2.282       .  S
In1657     O1664   2.301       .  S
In1657     O1665   2.223       .  S
In1657     O1666   2.236       .  S
In1657     O1669   2.265       .  S
C1658      C1697   1.478       .  S
C1658      O1664   1.265       .  A
C1658      O1666   1.257       .  A
O1659      C1667   1.265       .  A
O1660      C1667   1.260       .  A
C1661      O1668   1.257       .  A
C1661      O1662   1.260       .  A
C1663      C1732   1.456       .  S
C1663      O1665   1.256       .  A
C1663      O1669   1.260       .  A
C1667      C1680   1.473       .  S
In1670     O1672   2.268       .  S
In1670     O1673   2.249       .  S
In1670     O1681   2.266       .  S
In1670     O1675   2.272       .  S
In1670     O1677   2.292       .  S
In1670     O1678   2.231       .  S
In1670     O1679   2.232       .  S
In1670     O1682   2.249       .  S
C1671      C1710   1.474       .  S
C1671      O1677   1.265       .  A
C1671      O1679   1.258       .  A
O1672      C1680   1.264       .  A
O1673      C1680   1.258       .  A
C1674      O1681   1.258       .  A
C1674      O1675   1.260       .  A
C1676      C1693   1.450       .  S
C1676      O1678   1.257       .  A
C1676      O1682   1.258       .  A
In1683     O1685   2.247       .  S
In1683     O1686   2.230       .  S
In1683     O1694   2.253       .  S
In1683     O1688   2.260       .  S
In1683     O1690   2.292       .  S
In1683     O1691   2.241       .  S
In1683     O1692   2.221       .  S
In1683     O1695   2.253       .  S
C1684      C1749   1.471       .  S
C1684      O1690   1.265       .  A
C1684      O1692   1.257       .  A
O1685      C1693   1.258       .  A
O1686      C1693   1.257       .  A
C1687      O1694   1.258       .  A
C1687      O1688   1.261       .  A
C1689      C1702   1.465       .  S
C1689      O1691   1.258       .  A
C1689      O1695   1.263       .  A
In1696     O1698   2.241       .  S
In1696     O1699   2.224       .  S
In1696     O1707   2.267   1_545  S
In1696     O1701   2.242       .  S
In1696     O1703   2.307       .  S
In1696     O1704   2.238       .  S
In1696     O1705   2.234       .  S
In1696     O1708   2.256       .  S
C1697      O1703   1.265       .  A
C1697      O1705   1.255       .  A
O1698      C1706   1.258       .  A
O1699      C1706   1.258       .  A
C1700      C2307   1.476       .  S
C1700      O1707   1.257       .  A
C1700      O1701   1.259   1_565  A
C1702      O1704   1.259       .  A
C1702      O1708   1.265       .  A
C1706      C1741   1.448       .  S
In1709     O1711   2.245       .  S
In1709     O1712   2.227       .  S
In1709     O1720   2.238       .  S
In1709     O1714   2.272       .  S
In1709     O1716   2.289       .  S
In1709     O1717   2.250       .  S
In1709     O1718   2.231       .  S
In1709     O1721   2.252       .  S
C1710      O1716   1.266       .  A
C1710      O1718   1.258       .  A
O1711      C1719   1.260       .  A
O1712      C1719   1.257       .  A
C1713      O1720   1.255       .  A
C1713      O1714   1.261       .  A
C1715      C1728   1.465       .  S
C1715      O1717   1.257       .  A
C1715      O1721   1.263       .  A
C1719      C1754   1.451       .  S
In1722     O1724   2.260       .  S
In1722     O1725   2.220       .  S
In1722     O1733   2.262       .  S
In1722     O1727   2.278       .  S
In1722     O1729   2.302       .  S
In1722     O1730   2.236       .  S
In1722     O1731   2.254       .  S
In1722     O1734   2.269       .  S
C1723      C1736   1.485       .  S
C1723      O1729   1.265       .  A
C1723      O1731   1.259       .  A
O1724      C1732   1.261       .  A
O1725      C1732   1.258       .  A
C1726      O1733   1.255       .  A
C1726      O1727   1.262       .  A
C1728      O1730   1.256       .  A
C1728      O1734   1.264       .  A
In1735     O1737   2.256       .  S
In1735     O1738   2.232       .  S
In1735     O1746   2.260   1_545  S
In1735     O1740   2.270       .  S
In1735     O1742   2.300       .  S
In1735     O1743   2.223       .  S
In1735     O1744   2.250       .  S
In1735     O1747   2.245       .  S
C1736      O1742   1.266       .  A
C1736      O1744   1.259       .  A
O1737      C1745   1.265       .  A
O1738      C1745   1.256       .  A
C1739      C2289   1.483       .  S
C1739      O1746   1.254       .  A
C1739      O1740   1.263   1_565  A
C1741      O1743   1.256       .  A
C1741      O1747   1.260       .  A
C1745      C1758   1.462       .  S
In1748     O1750   2.255       .  S
In1748     O1751   2.239       .  S
In1748     O1759   2.228       .  S
In1748     O1753   2.266       .  S
In1748     O1755   2.294       .  S
In1748     O1756   2.226       .  S
In1748     O1757   2.226       .  S
In1748     O1760   2.242       .  S
C1749      O1755   1.265       .  A
C1749      O1757   1.256       .  A
O1750      C1758   1.264       .  A
O1751      C1758   1.256       .  A
C1752      O1759   1.254       .  A
C1752      O1753   1.261       .  A
C1754      O1756   1.259       .  A
C1754      O1760   1.261       .  A
C1761      C1762   1.414       .  A
C1761      C1766   1.420       .  A
C1761      C1889   1.483       .  S
C1762      C1763   1.404       .  A
C1762      H1767   1.083       .  S
C1763      C1764   1.403       .  A
C1764      C1765   1.410       .  A
C1764      H1768   1.081       .  S
C1765      C1766   1.413       .  A
C1766      H1769   1.082       .  S
C1770      C1771   1.421       .  A
C1770      C1775   1.419       .  A
C1770      C1928   1.486       .  S
C1771      C1772   1.409       .  A
C1771      H1776   1.082       .  S
C1772      C1773   1.407       .  A
C1773      C1774   1.398       .  A
C1773      H1777   1.076   1_556  S
C1774      C1775   1.405       .  A
C1775      H1778   1.083       .  S
C1779      C1780   1.418       .  A
C1779      C1784   1.411       .  A
C1779      C1876   1.479       .  S
C1780      C1781   1.413       .  A
C1780      H1785   1.082       .  S
C1781      C1782   1.410       .  A
C1782      C1783   1.405       .  A
C1782      H1786   1.082   1_556  S
C1783      C1784   1.400       .  A
C1783      C2347   1.485   1_556  S
C1784      H1787   1.083       .  S
C1788      C1789   1.414       .  A
C1788      C1793   1.421       .  A
C1788      C1837   1.481       .  S
C1789      C1790   1.399       .  A
C1789      H1794   1.083       .  S
C1790      C1791   1.398       .  A
C1790      C2354   1.489   1_556  S
C1791      C1792   1.409       .  A
C1791      H1795   1.076   1_556  S
C1792      C1793   1.411       .  A
C1793      H1796   1.082       .  S
C1797      C1798   1.413       .  A
C1797      C1802   1.419       .  A
C1797      C1915   1.483       .  S
C1798      C1799   1.400       .  A
C1798      H1803   1.084       .  S
C1799      C1800   1.406       .  A
C1799      C1810   1.490       .  S
C1800      C1801   1.411       .  A
C1800      H1804   1.082       .  S
C1801      C1802   1.413       .  A
C1801      C1993   1.518       .  S
C1802      H1805   1.082       .  S
C1806      C1807   1.422       .  A
C1806      C1811   1.414       .  A
C1806      C1850   1.478       .  S
C1807      C1808   1.410       .  A
C1807      H1812   1.083       .  S
C1808      C1809   1.406       .  A
C1808      C2002   1.517       .  S
C1809      C1810   1.398       .  A
C1809      H1813   1.076       .  S
C1810      C1811   1.399       .  A
C1811      H1814   1.083       .  S
C1815      C1816   1.413       .  A
C1815      C1820   1.431       .  A
C1815      C1863   1.487       .  S
C1816      C1817   1.396       .  A
C1816      H1821   1.083       .  S
C1817      C1818   1.392       .  A
C1817      C1975   1.485       .  S
C1818      C1819   1.404       .  A
C1818      H1822   1.075       .  S
C1819      C1820   1.417       .  A
C1819      C1828   1.522       .  S
C1820      H1823   1.082       .  S
C1824      C1825   1.410       .  A
C1824      C1829   1.424       .  A
C1824      C1902   1.481       .  S
C1825      C1826   1.398       .  A
C1825      H1830   1.083       .  S
C1826      C1827   1.405       .  A
C1826      C1984   1.488       .  S
C1827      C1828   1.413       .  A
C1827      H1831   1.082       .  S
C1828      C1829   1.416       .  A
C1829      H1832   1.082       .  S
In1833     O1835   2.250       .  S
In1833     O1836   2.234       .  S
In1833     O1844   2.249       .  S
In1833     O1838   2.267       .  S
In1833     O1840   2.288       .  S
In1833     O1841   2.239       .  S
In1833     O1842   2.229       .  S
In1833     O1845   2.267       .  S
C1834      C1873   1.473       .  S
C1834      O1840   1.265       .  A
C1834      O1842   1.259       .  A
O1835      C1843   1.258       .  A
O1836      C1843   1.258       .  A
C1837      O1844   1.257       .  A
C1837      O1838   1.260       .  A
C1839      C1852   1.468       .  S
C1839      O1841   1.256       .  A
C1839      O1845   1.264       .  A
C1843      C1930   1.454       .  S
In1846     O1848   2.247       .  S
In1846     O1849   2.239       .  S
In1846     O2561   2.269       .  S
In1846     O1851   2.246       .  S
In1846     O1853   2.300       .  S
In1846     O1854   2.250       .  S
In1846     O1855   2.216       .  S
In1846     O1858   2.249       .  S
C1847      C1912   1.469       .  S
C1847      O1853   1.264       .  A
C1847      O1855   1.254       .  A
O1848      C1856   1.258       .  A
O1849      C1856   1.258       .  A
C1850      O1857   1.261       .  A
C1850      O2555   1.257   1_545  A
O1851      C2554   1.257       .  A
C1852      O1854   1.260       .  A
C1852      O1858   1.265       .  A
C1856      C1865   1.453       .  S
O1857     In2550   2.264   1_545  S
In1859     O1861   2.260       .  S
In1859     O1862   2.246       .  S
In1859     O2574   2.260       .  S
In1859     O1864   2.279       .  S
In1859     O1866   2.299       .  S
In1859     O1867   2.232       .  S
In1859     O1868   2.254       .  S
In1859     O1871   2.244       .  S
C1860      C1899   1.483       .  S
C1860      O1866   1.265       .  A
C1860      O1868   1.258       .  A
O1861      C1869   1.262       .  A
O1862      C1869   1.256       .  A
C1863      O1870   1.253       .  A
C1863      O2568   1.264   1_545  A
O1864      C2567   1.263       .  A
C1865      O1867   1.259       .  A
C1865      O1871   1.261       .  A
C1869      C1882   1.464       .  S
O1870     In2563   2.261   1_545  S
In1872     O2578   2.254       .  S
In1872     O1875   2.234       .  S
In1872     O1883   2.255       .  S
In1872     O1877   2.259       .  S
In1872     O1879   2.293       .  S
In1872     O1880   2.231       .  S
In1872     O1881   2.228       .  S
In1872     O1884   2.239       .  S
C1873      O1879   1.265       .  A
C1873      O1881   1.256       .  A
O1874     In2576   2.252   1_545  S
O1874      C2586   1.265   1_545  A
O1875      C1882   1.258       .  A
C1876      O1883   1.256       .  A
C1876      O1877   1.260       .  A
C1878      C1895   1.448       .  S
C1878      O1880   1.257       .  A
C1878      O1884   1.258       .  A
C1882      O2578   1.266       .  A
In1885     O1887   2.239       .  S
In1885     O1888   2.230       .  S
In1885     O1896   2.254       .  S
In1885     O1890   2.272       .  S
In1885     O1892   2.290       .  S
In1885     O1893   2.240       .  S
In1885     O1894   2.232       .  S
In1885     O1897   2.256       .  S
C1886      C1925   1.473       .  S
C1886      O1892   1.265       .  A
C1886      O1894   1.257       .  A
O1887      C1895   1.259       .  A
O1888      C1895   1.257       .  A
C1889      O1896   1.256       .  A
C1889      O1890   1.261       .  A
C1891      C1904   1.464       .  S
C1891      O1893   1.257       .  A
C1891      O1897   1.264       .  A
In1898     O1900   2.254       .  S
In1898     O1901   2.227       .  S
In1898     O1909   2.264       .  S
In1898     O1903   2.260       .  S
In1898     O1905   2.298       .  S
In1898     O1906   2.239       .  S
In1898     O1907   2.250       .  S
In1898     O1910   2.257       .  S
C1899      O1905   1.265       .  A
C1899      O1907   1.259       .  A
O1900      C1908   1.259       .  A
O1901      C1908   1.258       .  A
C1902      O1909   1.256       .  A
C1902      O1903   1.261       .  A
C1904      O1906   1.257       .  A
C1904      O1910   1.264       .  A
C1908      C1917   1.454       .  S
In1911     O1913   2.258       .  S
In1911     O1914   2.248       .  S
In1911     O1922   2.252       .  S
In1911     O1916   2.270       .  S
In1911     O1918   2.291       .  S
In1911     O1919   2.228       .  S
In1911     O1920   2.218       .  S
In1911     O1923   2.258       .  S
C1912      O1918   1.265       .  A
C1912      O1920   1.256       .  A
O1913      C1921   1.265       .  A
O1914      C1921   1.260       .  A
C1915      O1922   1.258       .  A
C1915      O1916   1.259       .  A
C1917      O1919   1.256       .  A
C1917      O1923   1.260       .  A
C1921      C1934   1.470       .  S
In1924     O1926   2.262       .  S
In1924     O1927   2.250       .  S
In1924     O1935   2.256       .  S
In1924     O1929   2.277       .  S
In1924     O1931   2.285       .  S
In1924     O1932   2.234       .  S
In1924     O1933   2.232       .  S
In1924     O1936   2.252       .  S
C1925      O1931   1.264       .  A
C1925      O1933   1.258       .  A
O1926      C1934   1.263       .  A
O1927      C1934   1.258       .  A
C1928      O1935   1.258       .  A
C1928      O1929   1.260       .  A
C1930      O1932   1.257       .  A
C1930      O1936   1.259       .  A
C1937      C1938   1.415       .  A
C1937      C1942   1.419       .  A
C1937      C2013   1.486       .  S
C1938      C1939   1.405       .  A
C1938      H1943   1.083       .  S
C1939      C1940   1.405       .  A
C1940      C1941   1.411       .  A
C1940      H1944   1.081       .  S
C1941      C1942   1.414       .  A
C1941      C1950   1.517       .  S
C1942      H1945   1.082       .  S
C1946      C1947   1.411       .  A
C1946      C1951   1.423       .  A
C1946      C2039   1.478       .  S
C1947      C1948   1.396       .  A
C1947      H1952   1.083       .  S
C1948      C1949   1.398       .  A
C1949      C1950   1.406       .  A
C1949      H1953   1.076       .  S
C1950      C1951   1.410       .  A
C1951      H1954   1.082       .  S
C1955      C1956   1.413       .  A
C1955      C1960   1.422       .  A
C1955      C2091   1.481       .  S
C1956      C1957   1.398       .  A
C1956      H1961   1.083       .  S
C1957      C1958   1.400       .  A
C1957      C2160   1.491       .  S
C1958      C1959   1.413       .  A
C1958      H1962   1.076       .  S
C1959      C1960   1.411       .  A
C1959      C1968   1.522       .  S
C1960      H1963   1.082       .  S
C1964      C1965   1.412       .  A
C1964      C1969   1.423       .  A
C1964      C2078   1.484       .  S
C1965      C1966   1.401       .  A
C1965      H1970   1.083       .  S
C1966      C1967   1.403       .  A
C1966      C2153   1.487       .  S
C1967      C1968   1.409       .  A
C1967      H1971   1.080       .  S
C1968      C1969   1.418       .  A
C1969      H1972   1.082       .  S
C1973      C1974   1.408       .  A
C1973      C1978   1.425       .  A
C1973      C2769   1.480       .  S
C1974      C1975   1.396       .  A
C1974      H1979   1.083       .  S
C1975      C1976   1.406       .  A
C1976      C1977   1.413       .  A
C1976      H1980   1.082       .  S
C1977      C1978   1.416       .  A
C1977      C1986   1.523       .  S
C1978      H1981   1.082       .  S
C1982      C1983   1.414       .  A
C1982      C1987   1.430       .  A
C1982      C2052   1.488       .  S
C1983      C1984   1.397       .  A
C1983      H1988   1.083       .  S
C1984      C1985   1.393       .  A
C1985      C1986   1.406       .  A
C1985      H1989   1.075       .  S
C1986      C1987   1.417       .  A
C1987      H1990   1.082       .  S
C1991      C1992   1.423       .  A
C1991      C1996   1.414       .  A
C1991      C2026   1.482       .  S
C1992      C1993   1.411       .  A
C1992      H1997   1.083       .  S
C1993      C1994   1.407       .  A
C1994      C1995   1.397       .  A
C1994      H1998   1.076       .  S
C1995      C1996   1.400       .  A
C1995      C2004   1.491       .  S
C1996      H1999   1.083       .  S
C2000      C2001   1.418       .  A
C2000      C2005   1.414       .  A
C2000      C2104   1.482       .  S
C2001      C2002   1.413       .  A
C2001      H2006   1.082       .  S
C2002      C2003   1.411       .  A
C2003      C2004   1.406       .  A
C2003      H2007   1.082       .  S
C2004      C2005   1.401       .  A
C2005      H2008   1.083       .  S
In2009     O2011   2.269       .  S
In2009     O2012   2.253       .  S
In2009     O2020   2.266       .  S
In2009     O2014   2.268       .  S
In2009     O2016   2.288       .  S
In2009     O2017   2.235       .  S
In2009     O2018   2.235       .  S
In2009     O2021   2.240       .  S
C2010      O2016   1.266       .  A
C2010      O2018   1.259       .  A
O2011      C2019   1.264       .  A
O2012      C2019   1.257       .  A
C2013      O2020   1.259       .  A
C2013      O2014   1.260       .  A
C2015      C2097   1.448       .  S
C2015      O2017   1.257       .  A
C2015      O2021   1.257       .  A
C2019      C2032   1.474       .  S
In2022     O2024   2.265       .  S
In2022     O2025   2.255       .  S
In2022     O2033   2.270       .  S
In2022     O2027   2.254       .  S
In2022     O2029   2.295       .  S
In2022     O2030   2.239       .  S
In2022     O2031   2.229       .  S
In2022     O2034   2.238       .  S
C2023      C2101   1.471       .  S
C2023      O2029   1.263       .  A
C2023      O2031   1.255       .  A
O2024      C2032   1.265       .  A
O2025      C2032   1.260       .  A
C2026      O2033   1.261       .  A
C2026      O2027   1.257       .  A
C2028      O2030   1.259       .  A
C2028      O2034   1.257       .  A
In2035     O2037   2.240       .  S
In2035     O2038   2.228       .  S
In2035     O2046   2.233       .  S
In2035     O2040   2.270       .  S
In2035     O2042   2.289       .  S
In2035     O2043   2.240       .  S
In2035     O2044   2.226       .  S
In2035     O2047   2.256       .  S
C2036      O2042   1.265   1_455  A
C2036      O2044   1.256   1_455  A
O2037      C2045   1.259       .  A
O2038      C2045   1.259       .  A
C2039      O2046   1.254       .  A
C2039      O2040   1.263       .  A
C2041      C2054   1.463       .  S
C2041      O2043   1.257       .  A
C2041      O2047   1.263       .  A
C2045      C2080   1.449       .  S
In2048     O2050   2.239       .  S
In2048     O2051   2.234       .  S
In2048     O2059   2.264       .  S
In2048     O2053   2.278       .  S
In2048     O2055   2.303       .  S
In2048     O2056   2.242       .  S
In2048     O2057   2.251       .  S
In2048     O2060   2.260       .  S
C2049      C2062   1.485       .  S
C2049      O2055   1.265       .  A
C2049      O2057   1.258       .  A
O2050      C2058   1.261       .  A
O2051      C2058   1.259       .  A
C2052      O2059   1.255       .  A
C2052      O2053   1.264       .  A
C2054      O2056   1.256       .  A
C2054      O2060   1.263       .  A
In2061     O2063   2.264       .  S
In2061     O2064   2.249       .  S
In2061     O2776   2.268       .  S
In2061     O2066   2.267       .  S
In2061     O2068   2.304       .  S
In2061     O2069   2.232       .  S
In2061     O2070   2.250       .  S
In2061     O2073   2.254       .  S
C2062      O2068   1.265       .  A
C2062      O2070   1.259       .  A
O2063      C2071   1.264       .  A
O2064      C2071   1.257       .  A
C2065      C2677   1.486       .  S
C2065      O2776   1.256       .  A
C2065      O2066   1.262       .  A
C2067      O2069   1.258   1_455  A
C2067      O2073   1.258   1_455  A
C2071      C2084   1.469       .  S
O2072     In2765   2.259   1_545  S
O2072      C2769   1.254       .  A
In2074     O2076   2.262       .  S
In2074     O2077   2.242       .  S
In2074     O2085   2.262       .  S
In2074     O2079   2.270       .  S
In2074     O2081   2.291       .  S
In2074     O2082   2.229       .  S
In2074     O2083   2.240       .  S
In2074     O2086   2.246       .  S
C2075      O2081   1.265   1_455  A
C2075      O2083   1.258   1_455  A
O2076      C2084   1.265       .  A
O2077      C2084   1.258       .  A
C2078      O2085   1.256       .  A
C2078      O2079   1.261       .  A
C2080      O2082   1.256       .  A
C2080      O2086   1.259       .  A
In2087     O2089   2.234       .  S
In2087     O2090   2.232       .  S
In2087     O2098   2.247       .  S
In2087     O2092   2.263       .  S
In2087     O2094   2.286       .  S
In2087     O2095   2.236       .  S
In2087     O2096   2.228       .  S
In2087     O2099   2.262       .  S
C2088      O2094   1.265       .  A
C2088      O2096   1.257       .  A
O2089      C2097   1.258       .  A
O2090      C2097   1.259       .  A
C2091      O2098   1.256       .  A
C2091      O2092   1.261       .  A
C2093      C2106   1.464       .  S
C2093      O2095   1.256       .  A
C2093      O2099   1.264       .  A
In2100     O2102   2.253       .  S
In2100     O2103   2.225       .  S
In2100     O2815   2.246       .  S
In2100     O2105   2.271       .  S
In2100     O2107   2.285       .  S
In2100     O2108   2.240       .  S
In2100     O2109   2.227       .  S
In2100     O2112   2.247       .  S
C2101      O2107   1.265       .  A
C2101      O2109   1.258       .  A
O2102      C2110   1.261       .  A
O2103      C2110   1.256       .  A
C2104      O2111   1.256       .  A
C2104      O2809   1.259   1_545  A
O2105      C2808   1.260       .  A
C2106      O2108   1.259       .  A
C2106      O2112   1.265       .  A
O2111     In2804   2.249   1_545  S
C2113      C2114   1.431       .  A
C2113      C2118   1.414       .  A
C2114      C2115   1.417       .  A
C2114      H2119   1.082       .  S
C2115      C2116   1.407       .  A
C2115      C2124   1.526       .  S
C2116      C2117   1.394       .  A
C2116      H2120   1.075       .  S
C2117      C2118   1.396       .  A
C2117      C2293   1.488       .  S
C2118      H2121   1.083   1_565  S
C2122      C2123   1.427       .  A
C2122      C2127   1.411       .  A
C2122      C2223   1.483       .  S
C2123      C2124   1.418       .  A
C2123      H2128   1.082       .  S
C2124      C2125   1.412       .  A
C2125      C2126   1.404       .  A
C2125      H2129   1.081       .  S
C2126      C2127   1.398       .  A
C2126      C2300   1.488       .  S
C2127      H2130   1.083       .  S
C2131      C2132   1.421       .  A
C2131      C2136   1.416       .  A
C2131      C2171   1.483       .  S
C2132      C2133   1.408       .  A
C2132      H2137   1.082       .  S
C2133      C2134   1.406       .  A
C2133      C2142   1.514       .  S
C2134      C2135   1.398       .  A
C2134      H2138   1.076       .  S
C2135      C2136   1.402       .  A
C2135      C2643   1.492       .  S
C2136      H2139   1.083       .  S
C2140      C2141   1.418       .  A
C2140      C2145   1.410       .  A
C2140      C2236   1.479       .  S
C2141      C2142   1.413       .  A
C2141      H2146   1.082       .  S
C2142      C2143   1.409       .  A
C2143      C2144   1.404       .  A
C2143      H2147   1.082       .  S
C2144      C2145   1.401       .  A
C2144      C2652   1.483       .  S
C2145      H2148   1.083       .  S
C2149      C2150   1.421       .  A
C2149      C2154   1.413       .  A
C2149      C2249   1.478       .  S
C2150      C2151   1.408       .  A
C2150      H2155   1.082       .  S
C2151      C2152   1.406       .  A
C2151      C2162   1.514       .  S
C2152      C2153   1.398       .  A
C2152      H2156   1.076       .  S
C2153      C2154   1.398       .  A
C2154      H2157   1.083       .  S
C2158      C2159   1.417       .  A
C2158      C2163   1.419       .  A
C2158      C2197   1.488       .  S
C2159      C2160   1.408       .  A
C2159      H2164   1.083       .  S
C2160      C2161   1.401       .  A
C2161      C2162   1.407       .  A
C2161      H2165   1.082       .  S
C2162      C2163   1.413       .  A
C2163      H2166   1.082       .  S
In2167     O2169   2.269       .  S
In2167     O2170   2.244       .  S
In2167     O2178   2.249       .  S
In2167     O2172   2.274       .  S
In2167     O2174   2.286       .  S
In2167     O2175   2.232       .  S
In2167     O2176   2.232       .  S
In2167     O2179   2.249       .  S
C2168      O2174   1.265       .  A
C2168      O2176   1.258       .  A
O2169      C2177   1.264       .  A
O2170      C2177   1.257       .  A
C2171      O2178   1.257       .  A
C2171      O2172   1.260       .  A
C2173      C2203   1.453       .  S
C2173      O2175   1.257       .  A
C2173      O2179   1.259       .  A
C2177      C2190   1.470       .  S
In2180     O2182   2.257       .  S
In2180     O2183   2.251       .  S
In2180     O2191   2.273       .  S
In2180     O2185   2.262       .  S
In2180     O2187   2.300       .  S
In2180     O2188   2.239       .  S
In2180     O2189   2.231       .  S
In2180     O2192   2.265       .  S
C2181      C2207   1.476       .  S
C2181      O2187   1.265       .  A
C2181      O2189   1.257       .  A
O2182      C2190   1.265       .  A
O2183      C2190   1.259       .  A
C2184      C2280   1.484       .  S
C2184      O2191   1.259       .  A
C2184      O2185   1.259       .  A
C2186      O2188   1.257       .  A
C2186      O2192   1.259       .  A
In2193     O2195   2.250       .  S
In2193     O2196   2.236       .  S
In2193     O2204   2.260       .  S
In2193     O2198   2.279       .  S
In2193     O2200   2.292       .  S
In2193     O2201   2.257       .  S
In2193     O2202   2.229       .  S
In2193     O2205   2.276       .  S
C2194      O2200   1.266       .  A
C2194      O2202   1.257       .  A
O2195      C2203   1.258       .  A
O2196      C2203   1.257       .  A
C2197      O2204   1.258       .  A
C2197      O2198   1.261       .  A
C2199      C2212   1.477       .  S
C2199      O2201   1.258       .  A
C2199      O2205   1.264       .  A
In2206     O2208   2.260       .  S
In2206     O2209   2.226       .  S
In2206     O2217   2.263       .  S
In2206     O2211   2.284       .  S
In2206     O2213   2.298       .  S
In2206     O2214   2.260       .  S
In2206     O2215   2.232       .  S
In2206     O2218   2.268       .  S
C2207      O2213   1.265       .  A
C2207      O2215   1.257       .  A
O2208      C2216   1.259       .  A
O2209      C2216   1.256       .  A
C2210      O2217   1.258       .  A
C2210      O2211   1.259       .  A
C2212      O2214   1.260       .  A
C2212      O2218   1.265       .  A
In2219     O2221   2.256       .  S
In2219     O2222   2.225       .  S
In2219     O2230   2.264       .  S
In2219     O2224   2.270       .  S
In2219     O2226   2.305       .  S
In2219     O2227   2.241       .  S
In2219     O2228   2.249       .  S
In2219     O2231   2.251       .  S
C2220      C2259   1.487       .  S
C2220      O2226   1.267       .  A
C2220      O2228   1.259       .  A
O2221      C2229   1.261       .  A
O2222      C2229   1.256       .  A
C2223      O2230   1.254       .  A
C2223      O2224   1.262       .  A
C2225      C2238   1.463       .  S
C2225      O2227   1.257       .  A
C2225      O2231   1.264       .  A
In2232     O2234   2.234       .  S
In2232     O2235   2.244       .  S
In2232     O2243   2.251       .  S
In2232     O2237   2.263       .  S
In2232     O2239   2.295       .  S
In2232     O2240   2.231       .  S
In2232     O2241   2.226       .  S
In2232     O2244   2.261       .  S
C2233      O2239   1.265   1_455  A
C2233      O2241   1.257   1_455  A
O2234      C2242   1.258       .  A
O2235      C2242   1.259       .  A
C2236      O2243   1.256       .  A
C2236      O2237   1.261       .  A
C2238      O2240   1.256       .  A
C2238      O2244   1.266       .  A
C2242      C2251   1.452       .  S
In2245     O2247   2.261       .  S
In2245     O2248   2.238       .  S
In2245     O2256   2.236       .  S
In2245     O2250   2.273       .  S
In2245     O2252   2.288       .  S
In2245     O2253   2.241       .  S
In2245     O2254   2.240       .  S
In2245     O2257   2.232       .  S
C2246      O2252   1.265       .  A
C2246      O2254   1.258       .  A
O2247      C2255   1.265       .  A
O2248      C2255   1.255       .  A
C2249      O2256   1.254       .  A
C2249      O2250   1.261       .  A
C2251      O2253   1.259       .  A
C2251      O2257   1.259       .  A
C2255      C2268   1.463       .  S
In2258     O2260   2.260       .  S
In2258     O2261   2.242       .  S
In2258     O2269   2.253       .  S
In2258     O2263   2.282       .  S
In2258     O2265   2.306       .  S
In2258     O2266   2.218       .  S
In2258     O2267   2.251       .  S
In2258     O2270   2.243       .  S
C2259      O2265   1.267       .  A
C2259      O2267   1.259       .  A
O2260      C2268   1.263       .  A
O2261      C2268   1.254       .  A
C2262      O2269   1.252       .  A
C2262      O2263   1.263       .  A
C2264      O2266   1.257       .  A
C2264      O2270   1.262       .  A
C2271      C2272   1.426       .  A
C2271      C2276   1.420       .  A
C2272      C2273   1.408       .  A
C2272      H2277   1.083       .  S
C2273      C2274   1.407       .  A
C2273      C2284   1.513       .  S
C2274      C2275   1.403       .  A
C2274      H2278   1.066       .  S
C2275      C2276   1.396       .  A
C2275      C2309   1.507       .  S
C2276      H2279   1.083       .  S
C2280      C2281   1.428       .  A
C2280      C2285   1.431       .  A
C2281      C2282   1.404       .  A
C2281      H2286   1.083       .  S
C2282      C2283   1.399       .  A
C2282      C2320   1.510       .  S
C2283      C2284   1.393       .  A
C2283      H2287   1.060       .  S
C2284      C2285   1.409       .  A
C2285      H2288   1.083       .  S
C2289      C2290   1.426       .  A
C2289      C2294   1.411       .  A
C2290      C2291   1.417       .  A
C2290      H2295   1.082       .  S
C2291      C2292   1.412       .  A
C2291      C2302   1.524       .  S
C2292      C2293   1.405       .  A
C2292      H2296   1.082       .  S
C2293      C2294   1.399       .  A
C2294      H2297   1.083       .  S
C2298      C2299   1.414       .  A
C2298      C2303   1.430       .  A
C2298      C2430   1.487       .  S
C2299      C2300   1.396       .  A
C2299      H2304   1.083       .  S
C2300      C2301   1.394       .  A
C2301      C2302   1.406       .  A
C2301      H2305   1.075       .  S
C2302      C2303   1.417       .  A
C2303      H2306   1.082       .  S
C2307      C2308   1.422       .  A
C2307      C2312   1.427       .  A
C2308      C2309   1.398       .  A
C2308      H2313   1.083       .  S
C2309      C2310   1.398       .  A
C2310      C2311   1.407       .  A
C2310      H2314   1.064       .  S
C2311      C2312   1.408       .  A
C2311      C2318   1.513       .  S
C2312      H2315   1.083       .  S
C2316      C2317   1.432       .  A
C2316      C2321   1.431       .  A
C2316      C2365   1.481       .  S
C2317      C2318   1.407       .  A
C2317      H2322   1.083       .  S
C2318      C2319   1.389       .  A
C2319      C2320   1.391       .  A
C2319      H2323   1.053       .  S
C2320      C2321   1.404       .  A
C2321      H2324   1.083       .  S
C2325      C2326   1.426       .  A
C2325      C2330   1.414       .  A
C2325      C2417   1.486       .  S
C2326      C2327   1.415       .  A
C2326      H2331   1.082       .  S
C2327      C2328   1.407       .  A
C2328      C2329   1.397       .  A
C2328      H2332   1.076       .  S
C2329      C2330   1.399       .  A
C2329      C2467   1.488   1_554  S
C2330      H2333   1.083       .  S
C2334      C2335   1.413       .  A
C2334      C2339   1.417       .  A
C2334      C2378   1.481       .  S
C2335      C2336   1.403       .  A
C2335      H2340   1.083       .  S
C2336      C2337   1.405       .  A
C2336      C2478   1.488   1_554  S
C2337      C2338   1.410       .  A
C2337      H2341   1.081       .  S
C2338      C2339   1.412       .  A
C2339      H2342   1.082       .  S
C2343      C2344   1.424       .  A
C2343      C2348   1.413       .  A
C2343      C2456   1.481       .  S
C2344      C2345   1.413       .  A
C2344      H2349   1.082       .  S
C2345      C2346   1.405       .  A
C2346      C2347   1.395       .  A
C2346      H2350   1.076       .  S
C2347      C2348   1.397       .  A
C2348      H2351   1.083       .  S
C2352      C2353   1.414       .  A
C2352      C2357   1.417       .  A
C2352      C2391   1.481       .  S
C2353      C2354   1.405       .  A
C2353      H2358   1.083       .  S
C2354      C2355   1.403       .  A
C2355      C2356   1.409       .  A
C2355      H2359   1.082       .  S
C2356      C2357   1.411       .  A
C2357      H2360   1.082       .  S
In2361     O2363   2.260       .  S
In2361     O2364   2.251       .  S
In2361     O2372   2.265       .  S
In2361     O2366   2.266       .  S
In2361     O2368   2.292       .  S
In2361     O2369   2.236       .  S
In2361     O2370   2.227       .  S
In2361     O2373   2.274       .  S
C2362      C2401   1.472       .  S
C2362      O2368   1.265       .  A
C2362      O2370   1.256       .  A
O2363      C2371   1.265       .  A
O2364      C2371   1.259       .  A
C2365      O2372   1.258       .  A
C2365      O2366   1.258       .  A
C2367      C2436   1.463       .  S
C2367      O2369   1.257       .  A
C2367      O2373   1.261       .  A
C2371      C2384   1.470       .  S
In2374     O2376   2.264       .  S
In2374     O2377   2.245       .  S
In2374     O2385   2.254       .  S
In2374     O2379   2.264       .  S
In2374     O2381   2.295       .  S
In2374     O2382   2.227       .  S
In2374     O2383   2.227       .  S
In2374     O2386   2.246       .  S
C2375      C2414   1.475       .  S
C2375      O2381   1.266       .  A
C2375      O2383   1.257       .  A
O2376      C2384   1.265       .  A
O2377      C2384   1.257       .  A
C2378      O2385   1.258       .  A
C2378      O2379   1.260       .  A
C2380      C2397   1.449       .  S
C2380      O2382   1.257       .  A
C2380      O2386   1.259       .  A
In2387     O2389   2.246       .  S
In2387     O2390   2.229       .  S
In2387     O2398   2.256       .  S
In2387     O2392   2.261       .  S
In2387     O2394   2.296       .  S
In2387     O2395   2.242       .  S
In2387     O2396   2.222       .  S
In2387     O2399   2.266       .  S
C2388      C2453   1.473       .  S
C2388      O2394   1.266       .  A
C2388      O2396   1.256       .  A
O2389      C2397   1.258       .  A
O2390      C2397   1.258       .  A
C2391      O2398   1.259       .  A
C2391      O2392   1.260       .  A
C2393      C2406   1.470       .  S
C2393      O2395   1.258       .  A
C2393      O2399   1.264       .  A
In2400     O2402   2.241       .  S
In2400     O2403   2.231       .  S
In2400     O2411   2.267       .  S
In2400     O2405   2.246       .  S
In2400     O2407   2.296       .  S
In2400     O2408   2.257       .  S
In2400     O2409   2.227       .  S
In2400     O2412   2.254       .  S
C2401      O2407   1.264       .  A
C2401      O2409   1.255       .  A
O2402      C2410   1.257       .  A
O2403      C2410   1.259       .  A
C2404      O2411   1.262       .  A
C2404      O2405   1.257       .  A
C2406      O2408   1.259       .  A
C2406      O2412   1.263       .  A
C2410      C2445   1.449       .  S
In2413     O2415   2.249       .  S
In2413     O2416   2.223       .  S
In2413     O2424   2.258       .  S
In2413     O2418   2.276       .  S
In2413     O2420   2.297       .  S
In2413     O2421   2.247       .  S
In2413     O2422   2.232       .  S
In2413     O2425   2.264       .  S
C2414      O2420   1.266       .  A
C2414      O2422   1.257       .  A
O2415      C2423   1.259       .  A
O2416      C2423   1.256       .  A
C2417      O2424   1.255       .  A
C2417      O2418   1.261       .  A
C2419      C2432   1.469       .  S
C2419      O2421   1.257       .  A
C2419      O2425   1.264       .  A
C2423      C2458   1.449       .  S
In2426     O2428   2.268       .  S
In2426     O2429   2.231       .  S
In2426     O2437   2.268       .  S
In2426     O2431   2.278       .  S
In2426     O2433   2.303       .  S
In2426     O2434   2.247       .  S
In2426     O2435   2.265       .  S
In2426     O2438   2.266       .  S
C2427      C2440   1.489       .  S
C2427      O2433   1.264       .  A
C2427      O2435   1.260       .  A
O2428      C2436   1.262       .  A
O2429      C2436   1.258       .  A
C2430      O2437   1.255       .  A
C2430      O2431   1.262       .  A
C2432      O2434   1.256       .  A
C2432      O2438   1.263       .  A
In2439     O2441   2.259       .  S
In2439     O2442   2.235       .  S
In2439     O2450   2.276       .  S
In2439     O2444   2.268       .  S
In2439     O2446   2.300       .  S
In2439     O2447   2.227       .  S
In2439     O2448   2.258       .  S
In2439     O2451   2.245       .  S
C2440      O2446   1.266       .  A
C2440      O2448   1.260       .  A
O2441      C2449   1.265       .  A
O2442      C2449   1.256       .  A
C2443      O2450   1.256       .  A
C2443      O2444   1.262       .  A
C2445      O2447   1.256       .  A
C2445      O2451   1.259       .  A
C2449      C2462   1.465       .  S
In2452     O2454   2.254       .  S
In2452     O2455   2.244       .  S
In2452     O2463   2.252       .  S
In2452     O2457   2.267       .  S
In2452     O2459   2.297       .  S
In2452     O2460   2.222       .  S
In2452     O2461   2.227       .  S
In2452     O2464   2.249       .  S
C2453      O2459   1.265       .  A
C2453      O2461   1.256       .  A
O2454      C2462   1.263       .  A
O2455      C2462   1.257       .  A
C2456      O2463   1.255       .  A
C2456      O2457   1.261       .  A
C2458      O2460   1.257       .  A
C2458      O2464   1.260       .  A
C2465      C2466   1.413       .  A
C2465      C2470   1.418       .  A
C2465      C2593   1.481       .  S
C2466      C2467   1.403       .  A
C2466      H2471   1.083       .  S
C2467      C2468   1.404       .  A
C2468      C2469   1.410       .  A
C2468      H2472   1.081   1_556  S
C2469      C2470   1.413       .  A
C2470      H2473   1.082       .  S
C2474      C2475   1.424       .  A
C2474      C2479   1.414       .  A
C2474      C2632   1.483       .  S
C2475      C2476   1.412       .  A
C2475      H2480   1.082       .  S
C2476      C2477   1.406       .  A
C2477      C2478   1.396       .  A
C2477      H2481   1.076   1_556  S
C2478      C2479   1.398       .  A
C2479      H2482   1.083       .  S
C2483      C2484   1.419       .  A
C2483      C2488   1.410       .  A
C2483      C2580   1.477       .  S
C2484      C2485   1.414       .  A
C2484      H2489   1.082       .  S
C2485      C2486   1.409       .  A
C2486      C2487   1.403       .  A
C2486      H2490   1.081       .  S
C2487      C2488   1.400       .  A
C2488      H2491   1.083   1_565  S
C2492      C2493   1.416       .  A
C2492      C2497   1.422   1_545  A
C2492      C2541   1.482   1_545  S
C2493      C2494   1.400       .  A
C2493      H2498   1.083       .  S
C2494      C2495   1.397   1_545  A
C2495      C2496   1.406       .  A
C2495      H2499   1.076   1_556  S
C2496      C2497   1.410       .  A
C2497      H2500   1.082       .  S
C2501      C2502   1.416       .  A
C2501      C2506   1.418       .  A
C2501      C2619   1.486       .  S
C2502      C2503   1.403       .  A
C2502      H2507   1.084       .  S
C2503      C2504   1.406       .  A
C2503      C2514   1.494       .  S
C2504      C2505   1.412       .  A
C2504      H2508   1.082       .  S
C2505      C2506   1.413       .  A
C2505      C2697   1.517       .  S
C2506      H2509   1.082       .  S
C2510      C2511   1.421       .  A
C2510      C2515   1.416       .  A
C2510      C2554   1.481       .  S
C2511      C2512   1.408       .  A
C2511      H2516   1.083       .  S
C2512      C2513   1.406       .  A
C2512      C2706   1.515       .  S
C2513      C2514   1.398       .  A
C2513      H2517   1.076       .  S
C2514      C2515   1.402       .  A
C2515      H2518   1.083       .  S
C2519      C2520   1.415       .  A
C2519      C2524   1.430       .  A
C2519      C2567   1.486       .  S
C2520      C2521   1.397       .  A
C2520      H2525   1.083       .  S
C2521      C2522   1.393       .  A
C2521      C2679   1.489       .  S
C2522      C2523   1.404       .  A
C2522      H2526   1.074       .  S
C2523      C2524   1.415       .  A
C2523      C2532   1.521       .  S
C2524      H2527   1.082       .  S
C2528      C2529   1.410       .  A
C2528      C2533   1.424       .  A
C2528      C2606   1.481       .  S
C2529      C2530   1.398       .  A
C2529      H2534   1.083       .  S
C2530      C2531   1.405       .  A
C2530      C2688   1.486       .  S
C2531      C2532   1.412       .  A
C2531      H2535   1.082       .  S
C2532      C2533   1.415       .  A
C2533      H2536   1.082       .  S
In2537     O2539   2.251       .  S
In2537     O2540   2.232       .  S
In2537     O2548   2.248       .  S
In2537     O2542   2.270   1_565  S
In2537     O2544   2.289   1_565  S
In2537     O2545   2.248       .  S
In2537     O2546   2.234       .  S
In2537     O2549   2.260   1_565  S
C2538      C2577   1.474       .  S
C2538      O2544   1.264   1_565  A
C2538      O2546   1.258       .  A
O2539      C2547   1.259       .  A
O2540      C2547   1.258       .  A
C2541      O2548   1.256       .  A
C2541      O2542   1.261   1_565  A
C2543      C2556   1.468       .  S
C2543      O2545   1.258       .  A
C2543      O2549   1.263   1_565  A
C2547      C2634   1.453       .  S
In2550     O2552   2.246       .  S
In2550     O2553   2.238       .  S
In2550     O2555   2.245       .  S
In2550     O2557   2.297       .  S
In2550     O2558   2.246   1_565  S
In2550     O2559   2.220       .  S
In2550     O2562   2.255       .  S
C2551      C2616   1.471       .  S
C2551      O2557   1.264       .  A
C2551      O2559   1.255       .  A
O2552      C2560   1.257       .  A
O2553      C2560   1.258       .  A
C2554      O2561   1.260       .  A
C2556      O2558   1.261   1_565  A
C2556      O2562   1.264       .  A
C2560      C2569   1.452       .  S
In2563     O2565   2.260       .  S
In2563     O2566   2.240   1_565  S
In2563     O2568   2.283       .  S
In2563     O2570   2.305       .  S
In2563     O2571   2.227       .  S
In2563     O2572   2.257       .  S
In2563     O2575   2.243       .  S
C2564      C2603   1.487       .  S
C2564      O2570   1.265       .  A
C2564      O2572   1.259       .  A
O2565      C2573   1.262       .  A
O2566      C2573   1.255   1_545  A
C2567      O2574   1.254       .  A
C2569      O2571   1.258       .  A
C2569      O2575   1.262       .  A
C2573      C2586   1.463       .  S
In2576     O2579   2.237       .  S
In2576     O2587   2.248       .  S
In2576     O2581   2.261       .  S
In2576     O2583   2.293   1_565  S
In2576     O2584   2.231       .  S
In2576     O2585   2.232       .  S
In2576     O2588   2.240       .  S
C2577      O2583   1.265   1_565  A
C2577      O2585   1.257       .  A
O2579      C2586   1.258       .  A
C2580      O2587   1.255       .  A
C2580      O2581   1.261       .  A
C2582      C2599   1.449       .  S
C2582      O2584   1.258       .  A
C2582      O2588   1.258       .  A
In2589     O2591   2.241       .  S
In2589     O2592   2.231       .  S
In2589     O2600   2.255       .  S
In2589     O2594   2.265       .  S
In2589     O2596   2.295       .  S
In2589     O2597   2.243       .  S
In2589     O2598   2.232       .  S
In2589     O2601   2.254       .  S
C2590      C2629   1.477       .  S
C2590      O2596   1.266       .  A
C2590      O2598   1.257       .  A
O2591      C2599   1.259       .  A
O2592      C2599   1.257       .  A
C2593      O2600   1.256       .  A
C2593      O2594   1.260       .  A
C2595      C2608   1.465       .  S
C2595      O2597   1.257       .  A
C2595      O2601   1.265       .  A
In2602     O2604   2.254       .  S
In2602     O2605   2.225       .  S
In2602     O2613   2.260       .  S
In2602     O2607   2.262       .  S
In2602     O2609   2.307       .  S
In2602     O2610   2.237       .  S
In2602     O2611   2.254       .  S
In2602     O2614   2.266       .  S
C2603      O2609   1.266       .  A
C2603      O2611   1.258       .  A
O2604      C2612   1.260       .  A
O2605      C2612   1.259       .  A
C2606      O2613   1.255       .  A
C2606      O2607   1.262       .  A
C2608      O2610   1.256       .  A
C2608      O2614   1.264       .  A
C2612      C2621   1.455       .  S
In2615     O2617   2.259       .  S
In2615     O2618   2.245       .  S
In2615     O2626   2.258       .  S
In2615     O2620   2.277       .  S
In2615     O2622   2.293       .  S
In2615     O2623   2.226       .  S
In2615     O2624   2.223       .  S
In2615     O2627   2.261       .  S
C2616      O2622   1.265       .  A
C2616      O2624   1.256       .  A
O2617      C2625   1.265       .  A
O2618      C2625   1.259       .  A
C2619      O2626   1.257       .  A
C2619      O2620   1.259       .  A
C2621      O2623   1.256       .  A
C2621      O2627   1.261       .  A
C2625      C2638   1.469       .  S
In2628     O2630   2.263       .  S
In2628     O2631   2.244       .  S
In2628     O2639   2.258       .  S
In2628     O2633   2.271       .  S
In2628     O2635   2.293       .  S
In2628     O2636   2.228       .  S
In2628     O2637   2.236       .  S
In2628     O2640   2.252       .  S
C2629      O2635   1.265       .  A
C2629      O2637   1.258       .  A
O2630      C2638   1.264       .  A
O2631      C2638   1.257       .  A
C2632      O2639   1.256       .  A
C2632      O2633   1.261       .  A
C2634      O2636   1.257       .  A
C2634      O2640   1.260       .  A
C2641      C2642   1.414       .  A
C2641      C2646   1.418       .  A
C2641      C2717   1.480       .  S
C2642      C2643   1.403       .  A
C2642      H2647   1.083       .  S
C2643      C2644   1.405       .  A
C2644      C2645   1.412       .  A
C2644      H2648   1.081       .  S
C2645      C2646   1.412       .  A
C2645      C2654   1.518       .  S
C2646      H2649   1.082       .  S
C2650      C2651   1.411       .  A
C2650      C2655   1.424       .  A
C2650      C2743   1.480       .  S
C2651      C2652   1.396       .  A
C2651      H2656   1.083       .  S
C2652      C2653   1.396       .  A
C2653      C2654   1.406       .  A
C2653      H2657   1.076       .  S
C2654      C2655   1.413       .  A
C2655      H2658   1.082       .  S
C2659      C2660   1.415       .  A
C2659      C2664   1.422   1_545  A
C2659      C2795   1.482       .  S
C2660      C2661   1.399       .  A
C2660      H2665   1.083       .  S
C2661      C2662   1.397   1_545  A
C2662      C2663   1.406       .  A
C2662      H2666   1.076       .  S
C2663      C2664   1.411       .  A
C2663      C2672   1.516       .  S
C2664      H2667   1.082       .  S
C2668      C2669   1.414   1_565  A
C2668      C2673   1.418       .  A
C2668      C2782   1.480       .  S
C2669      C2670   1.404   1_545  A
C2669      H2674   1.083       .  S
C2670      C2671   1.404       .  A
C2671      C2672   1.410       .  A
C2671      H2675   1.081       .  S
C2672      C2673   1.412       .  A
C2673      H2676   1.082       .  S
C2677      C2678   1.411       .  A
C2677      C2682   1.426       .  A
C2678      C2679   1.398       .  A
C2678      H2683   1.083       .  S
C2679      C2680   1.406       .  A
C2680      C2681   1.413       .  A
C2680      H2684   1.081       .  S
C2681      C2682   1.418       .  A
C2681      C2690   1.525       .  S
C2682      H2685   1.082       .  S
C2686      C2687   1.413       .  A
C2686      C2691   1.430       .  A
C2686      C2756   1.487       .  S
C2687      C2688   1.396       .  A
C2687      H2692   1.083       .  S
C2688      C2689   1.395       .  A
C2689      C2690   1.407       .  A
C2689      H2693   1.075       .  S
C2690      C2691   1.417       .  A
C2691      H2694   1.082       .  S
C2695      C2696   1.422       .  A
C2695      C2700   1.413       .  A
C2695      C2730   1.477       .  S
C2696      C2697   1.409       .  A
C2696      H2701   1.083       .  S
C2697      C2698   1.406       .  A
C2698      C2699   1.398       .  A
C2698      H2702   1.076       .  S
C2699      C2700   1.398       .  A
C2699      C2708   1.489       .  S
C2700      H2703   1.083       .  S
C2704      C2705   1.416       .  A
C2704      C2709   1.413       .  A
C2704      C2808   1.480       .  S
C2705      C2706   1.412       .  A
C2705      H2710   1.082       .  S
C2706      C2707   1.410       .  A
C2707      C2708   1.405       .  A
C2707      H2711   1.082       .  S
C2708      C2709   1.400       .  A
C2709      H2712   1.084       .  S
In2713     O2715   2.265       .  S
In2713     O2716   2.248       .  S
In2713     O2724   2.257       .  S
In2713     O2718   2.258       .  S
In2713     O2720   2.287       .  S
In2713     O2721   2.236       .  S
In2713     O2722   2.226       .  S
In2713     O2725   2.248       .  S
C2714      O2720   1.266       .  A
C2714      O2722   1.258       .  A
O2715      C2723   1.263       .  A
O2716      C2723   1.257       .  A
C2717      O2724   1.258       .  A
C2717      O2718   1.259       .  A
C2719      C2801   1.453       .  S
C2719      O2721   1.258       .  A
C2719      O2725   1.258       .  A
C2723      C2736   1.469       .  S
In2726     O2728   2.258       .  S
In2726     O2729   2.248       .  S
In2726     O2737   2.263       .  S
In2726     O2731   2.242       .  S
In2726     O2733   2.293       .  S
In2726     O2734   2.238       .  S
In2726     O2735   2.220       .  S
In2726     O2738   2.242       .  S
C2727      C2805   1.468       .  S
C2727      O2733   1.263       .  A
C2727      O2735   1.255       .  A
O2728      C2736   1.264       .  A
O2729      C2736   1.259       .  A
C2730      O2737   1.261       .  A
C2730      O2731   1.256       .  A
C2732      O2734   1.259       .  A
C2732      O2738   1.257       .  A
In2739     O2741   2.243       .  S
In2739     O2742   2.224       .  S
In2739     O2750   2.243       .  S
In2739     O2744   2.271       .  S
In2739     O2746   2.292       .  S
In2739     O2747   2.232       .  S
In2739     O2748   2.241       .  S
In2739     O2751   2.257       .  S
C2740      O2746   1.265   1_455  A
C2740      O2748   1.258   1_455  A
O2741      C2749   1.260       .  A
O2742      C2749   1.258       .  A
C2743      O2750   1.253       .  A
C2743      O2744   1.262       .  A
C2745      C2758   1.461       .  S
C2745      O2747   1.256       .  A
C2745      O2751   1.264       .  A
C2749      C2784   1.450       .  S
In2752     O2754   2.236       .  S
In2752     O2755   2.231       .  S
In2752     O2763   2.259       .  S
In2752     O2757   2.282       .  S
In2752     O2759   2.295       .  S
In2752     O2760   2.240       .  S
In2752     O2761   2.256       .  S
In2752     O2764   2.254       .  S
C2753      C2766   1.483       .  S
C2753      O2759   1.265       .  A
C2753      O2761   1.259       .  A
O2754      C2762   1.261       .  A
O2755      C2762   1.258       .  A
C2756      O2763   1.254       .  A
C2756      O2757   1.264       .  A
C2758      O2760   1.255       .  A
C2758      O2764   1.262       .  A
In2765     O2767   2.263       .  S
In2765     O2768   2.235   1_565  S
In2765     O2770   2.258       .  S
In2765     O2772   2.296       .  S
In2765     O2773   2.223       .  S
In2765     O2774   2.255       .  S
In2765     O2777   2.253       .  S
C2766      O2772   1.264       .  A
C2766      O2774   1.259       .  A
O2767      C2775   1.264       .  A
O2768      C2775   1.257   1_545  A
C2769      O2770   1.262   1_545  A
C2771      O2773   1.259   1_455  A
C2771      O2777   1.259   1_455  A
C2775      C2788   1.464       .  S
In2778     O2780   2.248   1_565  S
In2778     O2781   2.246       .  S
In2778     O2789   2.252       .  S
In2778     O2783   2.265   1_565  S
In2778     O2785   2.286   1_565  S
In2778     O2786   2.229       .  S
In2778     O2787   2.229       .  S
In2778     O2790   2.249       .  S
C2779      O2785   1.265   1_465  A
C2779      O2787   1.257   1_455  A
O2780      C2788   1.264   1_545  A
O2781      C2788   1.259       .  A
C2782      O2789   1.257       .  A
C2782      O2783   1.260   1_565  A
C2784      O2786   1.257       .  A
C2784      O2790   1.259       .  A
In2791     O2793   2.249       .  S
In2791     O2794   2.232       .  S
In2791     O2802   2.257       .  S
In2791     O2796   2.268   1_565  S
In2791     O2798   2.285   1_565  S
In2791     O2799   2.245       .  S
In2791     O2800   2.233       .  S
In2791     O2803   2.263   1_565  S
C2792      O2798   1.265   1_565  A
C2792      O2800   1.259       .  A
O2793      C2801   1.259       .  A
O2794      C2801   1.257       .  A
C2795      O2802   1.257   1_545  A
C2795      O2796   1.260       .  A
C2797      C2810   1.468       .  S
C2797      O2799   1.257       .  A
C2797      O2803   1.264   1_565  A
In2804     O2806   2.258       .  S
In2804     O2807   2.225       .  S
In2804     O2809   2.275       .  S
In2804     O2811   2.284       .  S
In2804     O2812   2.244   1_565  S
In2804     O2813   2.220       .  S
In2804     O2816   2.258       .  S
C2805      O2811   1.265       .  A
C2805      O2813   1.257       .  A
O2806      C2814   1.261       .  A
O2807      C2814   1.255       .  A
C2808      O2815   1.256       .  A
C2810      O2812   1.259   1_565  A
C2810      O2816   1.265       .  A
