geometry optimzed in LAMMPS
_audit_creation_date              2020-12-01 
_audit_creation_method            'lammps2cif' 
_symmetry_space_group_name_H-M    'P1' 
_symmetry_Int_Tables_number       1 
_symmetry_cell_setting            triclinic 
loop_ 
_symmetry_equiv_pos_as_xyz 
  x,y,z 
_cell_length_a                    46.09657592 
_cell_length_b                    46.222997135058826 
_cell_length_c                    41.0862067048649 
_cell_angle_alpha                 89.94791050825789 
_cell_angle_beta                  90.07104960688783 
_cell_angle_gamma                 119.93691555943889 
loop_ 
_atom_site_label 
_atom_site_type_symbol 
_atom_site_fract_x 
_atom_site_fract_y 
_atom_site_fract_z 
_atom_site_charge 
C1          C  0.49542943  0.94460980  0.04462837    -0.10800
C2          C  0.46439596  0.93576140  0.05833095    -0.04600
C3          C  0.44490920  0.94901489  0.04711480    -0.10700
C4          C  0.45661104  0.97205099  0.02101715     0.10200
C5          C  0.48809953  0.98128258  0.00654652    -0.02500
C6          C  0.50770871  0.96762004  0.01845559     0.10000
C7          C  0.53864891  0.97699122  0.00365593    -0.12500
C8          C  0.55033180  0.99957629  0.97770571    -0.12500
C9          C  0.53147192  0.01354497  0.96564236     0.10000
C10         C  0.49994203  0.00416928  0.98010140    -0.02500
C11         C  0.43760703  0.98577226  0.00884403    -0.12700
C12         C  0.44913317  0.00806780  0.98275760    -0.12700
C13         C  0.48014602  0.01754364  0.96808013     0.10200
C14         C  0.49184512  0.03980211  0.94140106    -0.10700
C15         C  0.52289716  0.04893373  0.92765034    -0.04600
C16         C  0.54290360  0.03632523  0.93921333    -0.10800
H17         H  0.55397456  0.96678198  0.01201210     0.07500
H18         H  0.57424365  0.00589484  0.96698345     0.07500
H19         H  0.41352339  0.97912665  0.01929805     0.07600
H20         H  0.43349606  0.01780292  0.97408255     0.07600
H21         H  0.45530251  0.91831278  0.07855453     0.04100
H22         H  0.53181147  0.06649651  0.90752627     0.04100
O23         O  0.51506129  0.78935582  0.21824517    -0.72800
O24         O  0.51747878  0.72894706  0.28710996    -0.73800
O25         O  0.51896201  0.79138169  0.28722269    -0.62400
O26         O  0.51389496  0.72733618  0.21837581    -0.70900
O27         O  0.56900518  0.75371863  0.21502699    -0.70400
O28         O  0.57418986  0.81754373  0.28526721    -0.61700
O29         O  0.57283399  0.75478785  0.28451824    -0.74200
O30         O  0.57040479  0.81631126  0.21562792    -0.72900
Cu31       Cu  0.51452699  0.75840527  0.25289488     1.04600
Cu32       Cu  0.57357868  0.78658074  0.25005859     1.04300
C33         C  0.54227403  0.81223962  0.20572990     0.93400
C34         C  0.54522498  0.73157759  0.29615480     0.92500
C35         C  0.54732270  0.81490008  0.29709554     0.84600
C36         C  0.54041659  0.73012765  0.20563647     0.90900
O37         O  0.41927434  0.24112744  0.71485618    -0.72800
O38         O  0.41905505  0.17897291  0.78385792    -0.73800
O39         O  0.41747902  0.23983150  0.78463869    -0.62400
O40         O  0.42080192  0.17976758  0.71491232    -0.70900
O41         O  0.47611848  0.20956685  0.71596388    -0.70400
O42         O  0.47291601  0.26791449  0.78632368    -0.61700
O43         O  0.47441319  0.20771115  0.78475423    -0.74200
O44         O  0.47473337  0.27057414  0.71751855    -0.72900
Cu45       Cu  0.41716276  0.20899210  0.74941979     1.04600
Cu46       Cu  0.47639280  0.23993656  0.75106955     1.04300
C47         C  0.44710785  0.26597615  0.70573078     0.93400
C48         C  0.44683217  0.18356810  0.79528378     0.92500
C49         C  0.44477459  0.26282669  0.79708587     0.84600
C50         C  0.44925611  0.18459211  0.70524248     0.90900
O51         O  0.73238932  0.20877765  0.78837842    -0.72800
O52         O  0.79474928  0.27006745  0.71968540    -0.73800
O53         O  0.73321393  0.20862545  0.71955386    -0.62400
O54         O  0.79382841  0.27057296  0.78840348    -0.70900
O55         O  0.82262450  0.24401233  0.78902376    -0.70400
O56         O  0.76040760  0.18039150  0.72026264    -0.61700
O57         O  0.82239941  0.24238640  0.71981406    -0.74200
O58         O  0.76058585  0.18160698  0.78987098    -0.72900
Cu59       Cu  0.76258293  0.24037926  0.75397324     1.04600
Cu60       Cu  0.79245849  0.21107041  0.75479796     1.04300
C61         C  0.73662131  0.18557052  0.80021303     0.93400
C62         C  0.81867048  0.26624320  0.70898291     0.92500
C63         C  0.73694944  0.18471020  0.70897923     0.84600
C64         C  0.81820862  0.26765513  0.79933310     0.90900
O65         O  0.21320238  0.73259747  0.21666252    -0.72800
O66         O  0.27322321  0.79213198  0.28699380    -0.73800
O67         O  0.21289687  0.72987716  0.28559585    -0.62400
O68         O  0.27383050  0.79564624  0.21840788    -0.70900
O69         O  0.24426011  0.82153357  0.21969729    -0.70400
O70         O  0.18368809  0.75600120  0.28755050    -0.61700
O71         O  0.24452177  0.81871172  0.28931080    -0.74200
O72         O  0.18344319  0.75822796  0.21823134    -0.72900
Cu73       Cu  0.24425303  0.76168479  0.25174831     1.04600
Cu74       Cu  0.21293606  0.78955571  0.25368772     1.04300
C75         C  0.18838962  0.73530233  0.20678439     0.93400
C76         C  0.26842029  0.81456982  0.29967696     0.92500
C77         C  0.18884351  0.73275216  0.29755056     0.84600
C78         C  0.26911786  0.81935564  0.20895275     0.90900
C79         C  0.96932402  0.46372983  0.93635477    -0.10800
C80         C  0.96018899  0.48556796  0.92232843    -0.04600
C81         C  0.96997530  0.51695551  0.93556680    -0.10700
C82         C  0.98992452  0.52722804  0.96411348     0.10200
C83         C  0.99909641  0.50516424  0.97910898    -0.02500
C84         C  0.98862642  0.47322274  0.96529395     0.10000
C85         C  0.99782558  0.45180690  0.98068575    -0.12500
C86         C  0.01633036  0.46115268  0.00952722    -0.12500
C87         C  0.02690694  0.49253046  0.02367202     0.10000
C88         C  0.01852204  0.51493973  0.00815093    -0.02500
C89         C  0.00113008  0.55889745  0.97790740    -0.12700
C90         C  0.02068233  0.56870923  0.00610394    -0.12700
C91         C  0.02946896  0.54707890  0.02166602     0.10200
C92         C  0.04869338  0.55648993  0.05060626    -0.10700
C93         C  0.05600942  0.53390023  0.06585344    -0.04600
C94         C  0.04536268  0.50214515  0.05313690    -0.10800
H95         H  0.99059326  0.42750502  0.97061366     0.07500
H96         H  0.02229799  0.44353913  0.02069386     0.07500
H97         H  0.99500637  0.57645713  0.96682852     0.07600
H98         H  0.02864176  0.59330681  0.01584855     0.07600
H99         H  0.94424305  0.47751909  0.90094223     0.04100
H100        H  0.07087717  0.54145659  0.08799275     0.04100
C101        C  0.95408105  0.45111020  0.55522968    -0.10800
C102        C  0.94170249  0.47170139  0.56556606    -0.04600
C103        C  0.95347371  0.50360850  0.55270324    -0.10700
C104        C  0.97866292  0.51565954  0.52849846     0.10200
C105        C  0.99154650  0.49504715  0.51761975    -0.02500
C106        C  0.97941192  0.46272886  0.53119360     0.10000
C107        C  0.99241029  0.44275182  0.51992145    -0.12500
C108        C  0.01682767  0.45417266  0.49562014    -0.12500
C109        C  0.02895196  0.48588130  0.48164222     0.10000
C110        C  0.01629619  0.50660785  0.49280176    -0.02500
C111        C  0.99088999  0.54742157  0.51455580    -0.12700
C112        C  0.01496235  0.55864722  0.48996068    -0.12700
C113        C  0.02785588  0.53862048  0.47869559     0.10200
C114        C  0.05157383  0.54934399  0.45320295    -0.10700
C115        C  0.06425646  0.52903963  0.44312630    -0.04600
C116        C  0.05341438  0.49764443  0.45672034    -0.10800
H117        H  0.98362246  0.41800136  0.52969548     0.07500
H118        H  0.02607285  0.43792325  0.48770704     0.07500
H119        H  0.98156308  0.56365210  0.52230028     0.07600
H120        H  0.02333746  0.58313535  0.47969707     0.07600
H121        H  0.92248572  0.46269411  0.58422127     0.04100
H122        H  0.08250240  0.53758865  0.42355165     0.04100
O123        O  0.17782737  0.42327507  0.21550785    -0.72800
O124        O  0.24323134  0.42184284  0.28009436    -0.73800
O125        O  0.18235622  0.42389843  0.28477392    -0.62400
O126        O  0.23882863  0.42139579  0.21074497    -0.70900
O127        O  0.26783752  0.47663124  0.21106903    -0.70400
O128        O  0.21077336  0.47897616  0.28390787    -0.61700
O129        O  0.27182321  0.47718915  0.27978307    -0.74200
O130        O  0.20721894  0.47846682  0.21484383    -0.72900
Cu131      Cu  0.20955019  0.42066714  0.24783532     1.04600
Cu132      Cu  0.24037912  0.47967817  0.24743156     1.04300
C133        C  0.18230745  0.45117900  0.20475671     0.93400
C134        C  0.26816991  0.44935157  0.28970634     0.92500
C135        C  0.18718548  0.45179575  0.29584333     0.84600
C136        C  0.26231912  0.44882304  0.19911388     0.90900
O137        O  0.73186972  0.52577249  0.71461615    -0.72800
O138        O  0.79348547  0.52710434  0.78428200    -0.73800
O139        O  0.73189677  0.52670961  0.78374167    -0.62400
O140        O  0.79331356  0.52589439  0.71551500    -0.70900
O141        O  0.82126197  0.58123726  0.71436351    -0.70400
O142        O  0.75829574  0.58192939  0.78286301    -0.61700
O143        O  0.82056779  0.58234123  0.78411938    -0.74200
O144        O  0.75922827  0.58104252  0.71301224    -0.72900
Cu145      Cu  0.76167783  0.52456294  0.74956939     1.04600
Cu146      Cu  0.79079704  0.58364640  0.74857835     1.04300
C147        C  0.73614823  0.55296753  0.70216446     0.93400
C148        C  0.81668159  0.55483435  0.79549504     0.92500
C149        C  0.73523161  0.55418115  0.79436827     0.84600
C150        C  0.81729235  0.55322676  0.70448151     0.90900
C151        C  0.50082090  0.54843008  0.05030744    -0.10800
C152        C  0.46976884  0.52642232  0.06400651    -0.04600
C153        C  0.44948457  0.49423511  0.05181927    -0.10700
C154        C  0.46022771  0.48358227  0.02439279     0.10200
C155        C  0.49205057  0.50538328  0.01041299    -0.02500
C156        C  0.51259363  0.53788184  0.02356803     0.10000
C157        C  0.54395838  0.55896678  0.00939756    -0.12500
C158        C  0.55513649  0.54836567  0.98283816    -0.12500
C159        C  0.53520746  0.51641595  0.96936145     0.10000
C160        C  0.50323078  0.49474722  0.98308662    -0.02500
C161        C  0.44014545  0.45181543  0.01068103    -0.12700
C162        C  0.45073092  0.44172154  0.98336309    -0.12700
C163        C  0.48224649  0.46261853  0.96932260     0.10200
C164        C  0.49328317  0.45259222  0.94158472    -0.10700
C165        C  0.52512979  0.47403065  0.92895321    -0.04600
C166        C  0.54608265  0.50561082  0.94216952    -0.10800
H167        H  0.56007421  0.58386568  0.01880027     0.07500
H168        H  0.57946288  0.56552142  0.97273432     0.07500
H169        H  0.41587709  0.43456557  0.02081575     0.07600
H170        H  0.43392516  0.41731513  0.97337622     0.07600
H171        H  0.46100788  0.53468930  0.08456066     0.04100
H172        H  0.53380620  0.46599333  0.90816676     0.04100
C173        C  0.44859004  0.49525391  0.44734198    -0.10800
C174        C  0.46895347  0.52787814  0.43624455    -0.04600
C175        C  0.50066249  0.54876418  0.44940272    -0.10700
C176        C  0.51246403  0.53701373  0.47518219     0.10200
C177        C  0.49226348  0.50375054  0.48658991    -0.02500
C178        C  0.46021504  0.48271862  0.47256807     0.10000
C179        C  0.44067584  0.44993339  0.48423189    -0.12500
C180        C  0.45237386  0.43784789  0.50914490    -0.12500
C181        C  0.48400738  0.45814036  0.52326370     0.10000
C182        C  0.50421230  0.49143146  0.51193172    -0.02500
C183        C  0.54390920  0.55743616  0.48960142    -0.12700
C184        C  0.55553177  0.54542329  0.51466972    -0.12700
C185        C  0.53625633  0.51247584  0.52602186     0.10200
C186        C  0.54775762  0.49996077  0.55143851    -0.10700
C187        C  0.52783618  0.46692418  0.56158866    -0.04600
C188        C  0.49629449  0.44601919  0.54821104    -0.10800
H189        H  0.41614462  0.43338271  0.47413619     0.07500
H190        H  0.43647895  0.41237611  0.51720481     0.07500
H191        H  0.55976875  0.58290281  0.48152764     0.07600
H192        H  0.57986533  0.56219094  0.52506159     0.07600
H193        H  0.46007342  0.53711285  0.41652780     0.04100
H194        H  0.53684022  0.45741282  0.58093244     0.04100
C195        C  0.50764562  0.95748237  0.44966229    -0.10800
C196        C  0.47594281  0.94692944  0.43656075    -0.04600
C197        C  0.45417154  0.95643890  0.44999168    -0.10700
C198        C  0.46413626  0.97716020  0.47786427     0.10200
C199        C  0.49623090  0.98798177  0.49175707    -0.02500
C200        C  0.51805022  0.97797747  0.47772543     0.10000
C201        C  0.54968783  0.98910936  0.49181220    -0.12500
C202        C  0.55980917  0.00966028  0.51926426    -0.12500
C203        C  0.53872501  0.01997052  0.53344655     0.10000
C204        C  0.50662349  0.00906701  0.51957188    -0.02500
C205        C  0.44320210  0.98775051  0.49185686    -0.12700
C206        C  0.45350248  0.00862916  0.51903589    -0.12700
C207        C  0.48504221  0.01953300  0.53323721     0.10200
C208        C  0.49566210  0.04059309  0.56085993    -0.10700
C209        C  0.52699757  0.05054680  0.57452162    -0.04600
C210        C  0.54869562  0.04080953  0.56126354    -0.10800
H211        H  0.56691575  0.98204317  0.48161797     0.07500
H212        H  0.58434231  0.01747499  0.52931696     0.07500
H213        H  0.41872221  0.98009844  0.48173321     0.07600
H214        H  0.43649099  0.01610399  0.52895905     0.07600
H215        H  0.46796281  0.93080530  0.41536460     0.04100
H216        H  0.53505735  0.06699552  0.59552247     0.04100
C217        C  0.69376055  0.57633209  0.86353950    -0.11300
C218        C  0.66239481  0.54713790  0.86492028     0.15300
C219        C  0.65559351  0.52050086  0.84371597     0.02200
C220        C  0.67975505  0.52381764  0.82121596    -0.15600
C221        C  0.71129800  0.55296329  0.81947636    -0.10500
C222        C  0.71843260  0.57935705  0.84149637     0.08900
C223        C  0.63658726  0.54476386  0.88798914     0.09900
S224        S  0.61624417  0.48170373  0.84372834    -0.24800
H225        H  0.67363668  0.50324349  0.80475424     0.20200
S226        S  0.75867915  0.61682399  0.84381291    -0.30500
H227        H  0.69919031  0.59669576  0.88005755     0.10500
C228        C  0.63571199  0.53463006  0.92052848     0.03700
C229        C  0.60685191  0.52506907  0.93932467    -0.12800
C230        C  0.57912460  0.52588259  0.92622312    -0.08400
C231        C  0.58144439  0.53906152  0.89468681     0.07100
C232        C  0.60998778  0.54811682  0.87584093    -0.13500
S233        S  0.66979034  0.53045728  0.93689784    -0.30500
H234        H  0.60483620  0.51453833  0.96331791     0.11400
S235        S  0.54763341  0.54226803  0.87625601    -0.27600
H236        H  0.61073712  0.55614919  0.85092535     0.08600
H237        H  0.77693671  0.59995525  0.84143107     0.27100
H238        H  0.65839892  0.52464854  0.96929076     0.21900
H239        H  0.53297409  0.54419010  0.90556281     0.27200
H240        H  0.61061604  0.48063627  0.87741551     0.16000
C241        C  0.67583041  0.52296004  0.63027602    -0.11300
C242        C  0.66708962  0.54793940  0.62826339     0.15300
C243        C  0.68323665  0.57598171  0.64900668     0.02200
C244        C  0.70619913  0.57745912  0.67236026    -0.15600
C245        C  0.71403749  0.55179323  0.67519173    -0.10500
C246        C  0.69956348  0.52494667  0.65277363     0.08900
C247        C  0.63858784  0.54196407  0.60683229     0.09900
S248        S  0.67533978  0.61043217  0.64709514    -0.24800
H249        H  0.71751346  0.59853911  0.68887052     0.20200
S250        S  0.71091228  0.49287602  0.65078200    -0.30500
H251        H  0.66378314  0.50147951  0.61429017     0.10500
C252        C  0.63950393  0.53836324  0.57277006     0.03700
C253        C  0.61001491  0.52717721  0.55438098    -0.12800
C254        C  0.57979375  0.52006948  0.56936036    -0.08400
C255        C  0.57967050  0.52604542  0.60309946     0.07100
C256        C  0.60880406  0.53650094  0.62142328    -0.13500
S257        S  0.67804779  0.54736487  0.55291191    -0.30500
H258        H  0.61002944  0.52232730  0.52859078     0.11400
S259        S  0.54243351  0.51866658  0.62450288    -0.27600
H260        H  0.60793797  0.53926501  0.64756102     0.08600
H261        H  0.74521320  0.51479833  0.65649947     0.27100
H262        H  0.66536871  0.54099242  0.52096172     0.21900
H263        H  0.52712652  0.52456673  0.59766148     0.27200
H264        H  0.66594348  0.60641534  0.61411213     0.16000
C265        C  0.32408329  0.47580560  0.12846308    -0.11300
C266        C  0.33002542  0.44892035  0.12628988     0.15300
C267        C  0.31162385  0.42084010  0.14652828     0.02200
C268        C  0.28912894  0.42104625  0.16943558    -0.15600
C269        C  0.28386693  0.44844562  0.17227997    -0.10500
C270        C  0.30079502  0.47555494  0.15042513     0.08900
C271        C  0.35780559  0.45277086  0.10492968     0.09900
S272        S  0.31588043  0.38416590  0.14441578    -0.24800
H273        H  0.27610875  0.39983123  0.18557827     0.20200
S274        S  0.29336296  0.51028792  0.14846793    -0.30500
H275        H  0.33795377  0.49741784  0.11294447     0.10500
C276        C  0.35806237  0.45873666  0.07116824     0.03700
C277        C  0.38768366  0.46942431  0.05331242    -0.12800
C278        C  0.41683164  0.47358185  0.06841177    -0.08400
C279        C  0.41548942  0.46440685  0.10142613     0.07100
C280        C  0.38625989  0.45459076  0.11939988    -0.13500
S281        S  0.32097973  0.45373332  0.05105236    -0.30500
H282        H  0.38878140  0.47645378  0.02798822     0.11400
S283        S  0.45107887  0.46689253  0.12236769    -0.27600
H284        H  0.38620177  0.44978251  0.14524580     0.08600
H285        H  0.25853699  0.49060456  0.15298521     0.27100
H286        H  0.33460794  0.46179575  0.01952468     0.21900
H287        H  0.46617497  0.46255304  0.09448119     0.27200
H288        H  0.32509467  0.38772916  0.11140958     0.16000
C289        C  0.36206274  0.46890722  0.41530473    -0.11300
C290        C  0.36265417  0.45424647  0.38559763     0.15300
C291        C  0.38906958  0.44781450  0.37942528     0.02200
C292        C  0.41551861  0.45862770  0.40171601    -0.15600
C293        C  0.41602350  0.47534428  0.43038170    -0.10500
C294        C  0.38828733  0.47930778  0.43778493     0.08900
C295        C  0.33822626  0.45051573  0.35997498     0.09900
S296        S  0.39135990  0.42768928  0.34272928    -0.24800
H297        H  0.43685537  0.45573863  0.39576042     0.20200
S298        S  0.38633621  0.50007513  0.47414136    -0.30500
H299        H  0.34186469  0.47390503  0.42025199     0.10500
C300        C  0.30379243  0.42713824  0.36259092     0.03700
C301        C  0.28148710  0.42660263  0.33887582    -0.12800
C302        C  0.29294157  0.44903044  0.31254827    -0.08400
C303        C  0.32772711  0.47132767  0.30923482     0.07100
C304        C  0.34980266  0.47212739  0.33311469    -0.13500
S305        S  0.28831987  0.39792537  0.39602737    -0.30500
H306        H  0.25493509  0.40928332  0.34130594     0.11400
S307        S  0.34570299  0.49862676  0.27464596    -0.27600
H308        H  0.37631079  0.48983014  0.33079176     0.08600
H309        H  0.40710728  0.49261808  0.49316647     0.27100
H310        H  0.25520846  0.37897447  0.38467212     0.21900
H311        H  0.32288546  0.47599755  0.25183165     0.27200
H312        H  0.35664307  0.40924479  0.33719808     0.16000
C313        C  0.11962572  0.42818471  0.36177745    -0.11300
C314        C  0.12527657  0.45971892  0.37118513     0.15300
C315        C  0.15144588  0.48835883  0.35613449     0.02200
C316        C  0.17130167  0.48484741  0.33241955    -0.15600
C317        C  0.16541348  0.45323526  0.32222763    -0.10500
C318        C  0.13886147  0.42453445  0.33737947     0.08900
C319        C  0.10382300  0.46226902  0.39681131     0.09900
S320        S  0.16050247  0.53019649  0.36563055    -0.24800
H321        H  0.19120671  0.50727499  0.32140361     0.20200
S322        S  0.12779765  0.38242115  0.32710290    -0.30500
H323        H  0.09970195  0.40612876  0.37331410     0.10500
C324        C  0.06971422  0.45165808  0.39116450     0.03700
C325        C  0.05195693  0.45957340  0.41387752    -0.12800
C326        C  0.06765252  0.47815789  0.44193363    -0.08400
C327        C  0.10091669  0.48630817  0.44877252     0.07100
C328        C  0.11854590  0.47816516  0.42629976    -0.13500
S329        S  0.04978964  0.43153570  0.35340875    -0.30500
H330        H  0.02674800  0.45412448  0.40828247     0.11400
S331        S  0.12324829  0.51020003  0.48409820    -0.27600
H332        H  0.14459270  0.48597319  0.43097389     0.08600
H333        H  0.12043821  0.38584596  0.29454271     0.27100
H334        H  0.01719688  0.42386236  0.36209432     0.21900
H335        H  0.09475410  0.50131937  0.50323069     0.27200
H336        H  0.12718188  0.52185265  0.37159633     0.16000
C337        C  0.87219394  0.52694296  0.65906791    -0.11300
C338        C  0.88243842  0.54833963  0.63206516     0.15300
C339        C  0.87178608  0.57209564  0.62927591     0.02200
C340        C  0.85094987  0.57362630  0.65337542    -0.15600
C341        C  0.84065378  0.55207403  0.68040842    -0.10500
C342        C  0.85201656  0.52885082  0.68335509     0.08900
C343        C  0.90386044  0.54437844  0.60751989     0.09900
S344        S  0.88370640  0.60089272  0.59565330    -0.24800
H345        H  0.84240327  0.59152812  0.65081350     0.20200
S346        S  0.84289973  0.50184364  0.71815766    -0.30500
H347        H  0.88047057  0.50880819  0.66146689     0.10500
C348        C  0.93714204  0.55314693  0.61496220     0.03700
C349        C  0.95438751  0.54250209  0.59452686    -0.12800
C350        C  0.93905864  0.52333116  0.56669860    -0.08400
C351        C  0.90677546  0.51702944  0.55781493     0.07100
C352        C  0.88946170  0.52747371  0.57835911    -0.13500
S353        S  0.95692135  0.57622049  0.65157399    -0.30500
H354        H  0.97899033  0.54702860  0.60143953     0.11400
S355        S  0.88542296  0.49342810  0.52200952    -0.27600
H356        H  0.86394194  0.52081837  0.57246243     0.08600
H357        H  0.84579114  0.52576085  0.74106786     0.27100
H358        H  0.98883744  0.58051714  0.64533549     0.21900
H359        H  0.91443138  0.50095437  0.50432095     0.27200
H360        H  0.91422901  0.60224167  0.58886583     0.16000
C361        C  0.11571283  0.42915677  0.13854758    -0.11300
C362        C  0.11395298  0.45856586  0.13743897     0.15300
C363        C  0.13441103  0.48510522  0.15861775     0.02200
C364        C  0.15600037  0.48167462  0.18020592    -0.15600
C365        C  0.15843416  0.45253225  0.18109252    -0.10500
C366        C  0.13798243  0.42601556  0.15963027     0.08900
C367        C  0.09146930  0.46161898  0.11348613     0.09900
S368        S  0.13434270  0.52414719  0.15942444    -0.24800
H369        H  0.17119920  0.50222304  0.19645856     0.20200
S370        S  0.14018076  0.38829776  0.15647613    -0.30500
H371        H  0.10024909  0.40882745  0.12217122     0.10500
C372        C  0.10011210  0.46767464  0.08023949     0.03700
C373        C  0.08232696  0.47768300  0.05966942    -0.12800
C374        C  0.05560281  0.48098003  0.07158527    -0.08400
C375        C  0.04481199  0.47134615  0.10400641     0.07100
C376        C  0.06304392  0.46219242  0.12469859    -0.13500
S377        S  0.13571721  0.46574768  0.06468102    -0.30500
H378        H  0.09077491  0.48534984  0.03494866     0.11400
S379        S  0.00939221  0.47268169  0.12085929    -0.27600
H380        H  0.05595674  0.45695722  0.15007243     0.08600
H381        H  0.17540580  0.40500705  0.15660512     0.27100
H382        H  0.13021257  0.46948853  0.03164454     0.21900
H383        H  0.99278681  0.46857933  0.09100903     0.27200
H384        H  0.12673641  0.52461762  0.12637496     0.16000
C385        C  0.85552226  0.52798324  0.86283387    -0.11300
C386        C  0.88799038  0.55562599  0.86453380     0.15300
C387        C  0.89609589  0.58380416  0.84497873     0.02200
C388        C  0.87220142  0.58315171  0.82335516    -0.15600
C389        C  0.83984718  0.55515577  0.82102833    -0.10500
C390        C  0.83128112  0.52768624  0.84205105     0.08900
C391        C  0.91329571  0.55281516  0.88475656     0.09900
S392        S  0.93654730  0.62120562  0.84627053    -0.24800
H393        H  0.87924578  0.60458434  0.80778967     0.20200
S394        S  0.78982727  0.49176581  0.84438046    -0.30500
H395        H  0.84902247  0.50625649  0.87781076     0.10500
C396        C  0.90931631  0.54734772  0.91868729     0.03700
C397        C  0.93053425  0.53891178  0.93573394    -0.12800
C398        C  0.95598220  0.53630815  0.91962499    -0.08400
C399        C  0.96178634  0.54485540  0.88626470     0.04700
C400        C  0.94018530  0.55249335  0.86916156    -0.13500
S401        S  0.87660324  0.55014086  0.94008901    -0.30500
H402        H  0.92598263  0.53223526  0.96124440     0.11400
S403        S  0.99516451  0.54443538  0.86380276    -0.27600
H404        H  0.94361405  0.55698804  0.84316530     0.08600
H405        H  0.77343157  0.51052592  0.84265026     0.27100
H406        H  0.88427065  0.54337213  0.97132828     0.21900
H407        H  0.01585921  0.54958786  0.89091223     0.27200
H408        H  0.94350909  0.61781677  0.87893459     0.16000
C409        C  0.33300397  0.84884386  0.36824788    -0.11300
C410        C  0.33671181  0.88054380  0.37312724     0.15300
C411        C  0.31665131  0.88978923  0.35482878     0.02200
C412        C  0.29459872  0.86788013  0.33125868    -0.15600
C413        C  0.29111557  0.83620881  0.32604232    -0.10500
C414        C  0.30990522  0.82625491  0.34577000     0.08900
C415        C  0.36353076  0.90390217  0.39568597     0.09900
S416        S  0.31772716  0.92895555  0.36070738    -0.24800
H417        H  0.28008414  0.87576526  0.31680596     0.20200
S418        S  0.30396284  0.78449997  0.34395997    -0.30500
H419        H  0.34851639  0.84186132  0.38218035     0.10500
C420        C  0.36460425  0.89550028  0.42858741     0.03700
C421        C  0.39350797  0.91512799  0.44719725    -0.12800
C422        C  0.42117265  0.94322096  0.43371926    -0.08400
C423        C  0.41885837  0.95321600  0.40177310     0.07100
C424        C  0.39033397  0.93333313  0.38302838    -0.13500
S425        S  0.32966831  0.85913362  0.44657917    -0.30500
H426        H  0.39545652  0.90744633  0.47163168     0.11400
S427        S  0.45255403  0.98980486  0.38286737    -0.27600
H428        H  0.38969102  0.94006741  0.35786791     0.08600
H429        H  0.32626154  0.78807727  0.36909333     0.27100
H430        H  0.34283455  0.86396678  0.47828518     0.21900
H431        H  0.46747283  0.00684056  0.41192258     0.27200
H432        H  0.32607188  0.93201247  0.39395019     0.16000
C433        C  0.06989476  0.62239762  0.11459628    -0.11300
C434        C  0.10299347  0.64553807  0.10596113     0.15300
C435        C  0.11559960  0.64198458  0.07577059     0.02200
C436        C  0.09556418  0.61432902  0.05604248    -0.15600
C437        C  0.06331683  0.58998140  0.06580377    -0.10500
C438        C  0.04997948  0.59475494  0.09488575     0.08900
C439        C  0.12488981  0.66928539  0.13126917     0.09900
S440        S  0.15805814  0.66939970  0.06251103    -0.24800
H441        H  0.10617257  0.61036406  0.03413639     0.20200
S442        S  0.00897615  0.56468378  0.10964721    -0.30500
H443        H  0.06017813  0.62485701  0.13779208     0.10500
C444        C  0.13157563  0.70250293  0.13281930     0.03700
C445        C  0.15182753  0.72343806  0.15805037    -0.12800
C446        C  0.16539499  0.71171332  0.18188933    -0.08400
C447        C  0.15748011  0.67790302  0.18077038     0.07100
C448        C  0.13780468  0.65735909  0.15534729    -0.13500
S449        S  0.11502344  0.71834150  0.10216698    -0.30500
H450        H  0.15767941  0.74919247  0.15884754     0.11400
S451        S  0.17017218  0.65880265  0.21177165    -0.27600
H452        H  0.13192500  0.63155938  0.15463628     0.08600
H453        H  0.99514997  0.55144060  0.07900845     0.27100
H454        H  0.12882993  0.75081979  0.11488075     0.21900
H455        H  0.16536037  0.67568143  0.23784901     0.27200
H456        H  0.16459208  0.69722273  0.08140938     0.16000
C457        C  0.12795711  0.69189390  0.36855587    -0.11300
C458        C  0.12420220  0.65988043  0.36851995     0.15300
C459        C  0.14207225  0.65217938  0.34547991     0.02200
C460        C  0.16264051  0.67628812  0.32272498    -0.15600
C461        C  0.16670173  0.70853694  0.32268855    -0.10500
C462        C  0.14939532  0.71640742  0.34645572     0.08900
C463        C  0.10162445  0.63484703  0.39264442     0.09900
S464        S  0.13990448  0.61210084  0.34392432    -0.24800
H465        H  0.17567876  0.66972059  0.30488843     0.20200
S466        S  0.15478311  0.75754580  0.35122584    -0.30500
H467        H  0.11461124  0.69802889  0.38643612     0.10500
C468        C  0.11075801  0.63679332  0.42571860     0.03700
C469        C  0.09150769  0.60971121  0.44650259    -0.12800
C470        C  0.06341169  0.58081616  0.43477850    -0.08400
C471        C  0.05294456  0.58003223  0.40229882     0.07100
C472        C  0.07210993  0.60698428  0.38161474    -0.13500
S473        S  0.14880878  0.67213954  0.44062858    -0.30500
H474        H  0.09981312  0.60986821  0.47118674     0.11400
S475        S  0.01723382  0.54390843  0.38505764    -0.27600
H476        H  0.06493207  0.60552065  0.35629346     0.08600
H477        H  0.18976735  0.77409492  0.34724925     0.27100
H478        H  0.14475598  0.66208532  0.47342086     0.21900
H479        H  0.99984282  0.53172037  0.41452474     0.27200
H480        H  0.13558879  0.60561863  0.37753185     0.16000
C481        C  0.69701021  0.12371102  0.63794386    -0.11300
C482        C  0.66411073  0.11793283  0.63928743     0.15300
C483        C  0.65572114  0.13450606  0.66310173     0.02200
C484        C  0.67989354  0.15560273  0.68546775    -0.15600
C485        C  0.71293691  0.16165399  0.68430186    -0.10500
C486        C  0.72162125  0.14580934  0.65975174     0.08900
C487        C  0.63866936  0.09464413  0.61584126     0.09900
S488        S  0.61458141  0.12994542  0.66616554    -0.24800
H489        H  0.67275340  0.16757402  0.70394473     0.20200
S490        S  0.76378287  0.15403736  0.65375239    -0.30500
H491        H  0.70368562  0.11145629  0.61936472     0.10500
C492        C  0.63671118  0.10485813  0.58394887     0.03700
C493        C  0.60832089  0.08481992  0.56483884    -0.12800
C494        C  0.58201225  0.05474772  0.57700938    -0.08400
C495        C  0.58541127  0.04332016  0.60788461     0.07100
C496        C  0.61354804  0.06342380  0.62703275    -0.13500
S497        S  0.66866613  0.14494207  0.56891475    -0.30500
H498        H  0.60537676  0.09372466  0.54138379     0.11400
S499        S  0.55334715  0.00458663  0.62512992    -0.27600
H500        H  0.61508854  0.05545759  0.65146287     0.08600
H501        H  0.77885023  0.18849247  0.65998758     0.27100
H502        H  0.65492690  0.14205804  0.53769049     0.21900
H503        H  0.53964573  0.98874943  0.59528402     0.27200
H504        H  0.60795757  0.12713267  0.63256826     0.16000
C505        C  0.88319827  0.30769983  0.64053606    -0.11300
C506        C  0.88544896  0.33905373  0.63910980     0.15300
C507        C  0.86660090  0.34648277  0.66109935     0.02200
C508        C  0.84512682  0.32220842  0.68314559    -0.15600
C509        C  0.84246117  0.29056517  0.68477363    -0.10500
C510        C  0.86235711  0.28360538  0.66334150     0.08900
C511        C  0.90555553  0.36303909  0.61322156     0.09900
S512        S  0.86842709  0.38641435  0.66192966    -0.24800
H513        H  0.83066993  0.32842274  0.69954181     0.20200
S514        S  0.86111947  0.24409879  0.66259736    -0.30500
H515        H  0.89753025  0.30187501  0.62357647     0.10500
C516        C  0.94027067  0.38491389  0.61673227     0.03700
C517        C  0.95671199  0.41215765  0.59535297    -0.12800
C518        C  0.93903741  0.41755620  0.57045398    -0.08400
C519        C  0.90496199  0.39380734  0.56532316     0.07100
C520        C  0.88858614  0.36698574  0.58681573    -0.13500
S521        S  0.96277091  0.37991917  0.65023206    -0.30500
H522        H  0.98276594  0.43056134  0.59935951     0.11400
S523        S  0.88041070  0.39796563  0.53336496    -0.27600
H524        H  0.86194070  0.35001623  0.58397004     0.08600
H525        H  0.87534188  0.24874052  0.69383688     0.27100
H526        H  0.99435788  0.40714942  0.64240631     0.21900
H527        H  0.90738376  0.41700194  0.51231935     0.27200
H528        H  0.90224311  0.40562421  0.65293790     0.16000
C529        C  0.88603008  0.31348347  0.86412919    -0.11300
C530        C  0.88899751  0.34519582  0.86335646     0.15300
C531        C  0.86801235  0.35078203  0.84234172     0.02200
C532        C  0.84512225  0.32493551  0.82235960    -0.15600
C533        C  0.84201851  0.29306024  0.82281387    -0.10500
C534        C  0.86258385  0.28732544  0.84452227     0.08900
C535        C  0.91407367  0.37224018  0.88443520     0.09900
S536        S  0.86946850  0.39048274  0.83935159    -0.24800
H537        H  0.82981445  0.33005638  0.80592499     0.20200
S538        S  0.85950008  0.24715903  0.84936738    -0.30500
H539        H  0.90185427  0.30898551  0.88045524     0.10500
C540        C  0.90831046  0.37351756  0.91797949     0.03700
C541        C  0.92903499  0.40274002  0.93564720    -0.12800
C542        C  0.95569012  0.43050930  0.92049220    -0.08400
C543        C  0.96328593  0.42782429  0.88767031     0.07100
C544        C  0.94228810  0.39892685  0.86995776    -0.13500
S545        S  0.87264243  0.33930414  0.93755305    -0.30500
H546        H  0.92294315  0.40493387  0.96062319     0.11400
S547        S  0.99804639  0.46142174  0.86647115    -0.27600
H548        H  0.94706965  0.39782591  0.84430641     0.08600
H549        H  0.82427577  0.22924611  0.84858819     0.27100
H550        H  0.88158795  0.35132226  0.96956230     0.21900
H551        H  0.01716076  0.47700097  0.89440709     0.27200
H552        H  0.87915314  0.40063397  0.87167622     0.16000
C553        C  0.44905533  0.06216173  0.62297965    -0.11300
C554        C  0.45698482  0.09412651  0.61229163     0.15300
C555        C  0.47282603  0.10566808  0.58184593     0.02200
C556        C  0.48224119  0.08598057  0.56381889    -0.15600
C557        C  0.47626543  0.05496467  0.57551628    -0.10500
C558        C  0.45849930  0.04247716  0.60493227     0.08900
C559        C  0.45396730  0.11681562  0.63576894     0.09900
S560        S  0.48471085  0.14657108  0.56622008    -0.24800
H561        H  0.49637635  0.09590594  0.54156301     0.20200
S562        S  0.44994009  0.00307574  0.62213679    -0.30500
H563        H  0.43717068  0.05331980  0.64643864     0.10500
C564        C  0.42475398  0.11911421  0.63857178     0.03700
C565        C  0.42374310  0.14140031  0.66129722    -0.12800
C566        C  0.45115884  0.16085688  0.68193446    -0.08400
C567        C  0.47966072  0.15677675  0.68004353     0.07100
C568        C  0.48101892  0.13563550  0.65654719    -0.13500
S569        S  0.38907687  0.09392599  0.61292268    -0.30500
H570        H  0.40160610  0.14378678  0.66284861     0.11400
S571        S  0.51423938  0.17569377  0.70821641    -0.27600
H572        H  0.50306479  0.13301828  0.65506544     0.08600
H573        H  0.45104499  0.98818774  0.59271552     0.27100
H574        H  0.36807244  0.10499994  0.62585722     0.21900
H575        H  0.49369179  0.16824590  0.73587172     0.27200
H576        H  0.45915552  0.14958879  0.58157594     0.16000
C577        C  0.45470824  0.38918389  0.87369672    -0.11300
C578        C  0.45022699  0.36009954  0.88904526     0.15300
C579        C  0.45465666  0.36044114  0.92314828     0.02200
C580        C  0.46681017  0.39048204  0.94039480    -0.15600
C581        C  0.47305383  0.42000873  0.92463140    -0.10500
C582        C  0.46515966  0.41872140  0.89118426     0.08900
C583        C  0.44567329  0.33173429  0.86826476     0.09900
S584        S  0.44599648  0.32355483  0.94577821    -0.24800
H585        H  0.47255031  0.39109289  0.96605905     0.20200
S586        S  0.46951467  0.45443101  0.86908619    -0.30500
H587        H  0.45122635  0.38924847  0.84760382     0.10500
C588        C  0.41868741  0.31550884  0.84628556     0.03700
C589        C  0.41825973  0.29216576  0.82405683    -0.12800
C590        C  0.44400961  0.28424847  0.82364180    -0.08400
C591        C  0.46945901  0.29851632  0.84760164     0.07100
C592        C  0.47049205  0.32261590  0.86888377    -0.13500
S593        S  0.38462691  0.32424299  0.84675838    -0.30500
H594        H  0.39827693  0.28074620  0.80632061     0.11400
S595        S  0.50069133  0.28630424  0.85317190    -0.27600
H596        H  0.49103165  0.33455884  0.88603944     0.08600
H597        H  0.46552516  0.47069024  0.89618411     0.27100
H598        H  0.36616804  0.30271093  0.82112213     0.21900
H599        H  0.47896246  0.25240551  0.84585991     0.27200
H600        H  0.42159923  0.30077936  0.92416389     0.16000
C601        C  0.47698253  0.36150484  0.57903708    -0.11300
C602        C  0.45580198  0.35744694  0.60523965     0.15300
C603        C  0.44324178  0.37963266  0.60857048     0.02200
C604        C  0.45416615  0.40675531  0.58723529    -0.15600
C605        C  0.47722374  0.41211113  0.56246233    -0.10500
C606        C  0.48767842  0.38845752  0.55758939     0.08900
C607        C  0.45155204  0.33332171  0.63118706     0.09900
S608        S  0.41520403  0.37603149  0.64092225    -0.24800
H609        H  0.44639621  0.42507637  0.59134293     0.20200
S610        S  0.51713414  0.39318285  0.52629663    -0.30500
H611        H  0.48679095  0.34463237  0.57639044     0.10500
C612        C  0.43285222  0.29851393  0.62636829     0.03700
C613        C  0.43063167  0.27695645  0.65162056    -0.12800
C614        C  0.44756375  0.28957889  0.68121428    -0.08400
C615        C  0.46614588  0.32451086  0.68596729     0.07100
C616        C  0.46799816  0.34589351  0.66094765    -0.13500
S617        S  0.41197480  0.28160321  0.58809154    -0.30500
H618        H  0.41651805  0.25020070  0.64800489     0.11400
S619        S  0.48759895  0.34340052  0.72350499    -0.27600
H620        H  0.48253707  0.37265551  0.66462651     0.08600
H621        H  0.50936635  0.41225042  0.50508511     0.27100
H622        H  0.40096873  0.24793044  0.59530441     0.21900
H623        H  0.46412324  0.31814040  0.74392919     0.27200
H624        H  0.40108591  0.34146252  0.64566422     0.16000
C625        C  0.57624986  0.88986035  0.35497027    -0.11300
C626        C  0.54601483  0.88202302  0.37021783     0.15300
C627        C  0.51657519  0.85248315  0.36121676     0.02200
C628        C  0.51817889  0.83105988  0.33816440    -0.15600
C629        C  0.54831420  0.83877521  0.32235072    -0.10500
C630        C  0.57769849  0.86903647  0.33091058     0.08900
C631        C  0.54503320  0.90608071  0.39350301     0.09900
S632        S  0.47586502  0.84102931  0.37754114    -0.24800
H633        H  0.49525137  0.80838790  0.33207575     0.20200
S634        S  0.61750484  0.88371266  0.31124511    -0.30500
H635        H  0.59875255  0.91292151  0.36121883     0.10500
C636        C  0.53797969  0.89846199  0.42684478     0.03700
C637        C  0.52946062  0.91818574  0.44620180    -0.12800
C638        C  0.52811602  0.94544055  0.43281869    -0.08400
C639        C  0.53859495  0.95494209  0.40031494     0.07100
C640        C  0.54687945  0.93518788  0.38103413    -0.13500
S641        S  0.53765665  0.86237898  0.44410844    -0.30500
H642        H  0.52128496  0.91087654  0.47106092     0.11400
S643        S  0.53876955  0.99020687  0.38125606    -0.27600
H644        H  0.55267631  0.94134589  0.35552897     0.08600
H645        H  0.60413221  0.88037276  0.27974559     0.27100
H646        H  0.53063560  0.86731170  0.47628048     0.21900
H647        H  0.54207193  0.00781829  0.41019943     0.27200
H648        H  0.48134774  0.87367742  0.38050909     0.16000
C649        C  0.51857685  0.63293414  0.07943888    -0.11300
C650        C  0.53524838  0.63549371  0.10882975     0.15300
C651        C  0.54570644  0.61204842  0.11556493     0.02200
C652        C  0.53796867  0.58599184  0.09352308    -0.15600
C653        C  0.51916321  0.58213228  0.06531054    -0.10500
C654        C  0.51042915  0.60662599  0.05772462     0.08900
C655        C  0.53749925  0.66029256  0.13323061     0.09900
S656        S  0.56644809  0.61213248  0.15288039    -0.24800
H657        H  0.54404238  0.56685137  0.09987317     0.20200
S658        S  0.48588065  0.60378400  0.02239920    -0.30500
H659        H  0.51038276  0.65072248  0.07412885     0.10500
C660        C  0.56787458  0.68904152  0.14141032     0.03700
C661        C  0.56803927  0.71133049  0.16487116    -0.12800
C662        C  0.53829536  0.70593142  0.18012691    -0.08400
C663        C  0.50772587  0.67720191  0.17091889     0.07100
C664        C  0.50786890  0.65482309  0.14809613    -0.13500
S665        S  0.60626032  0.69766238  0.12147915    -0.30500
H666        H  0.59155686  0.73319230  0.17118911     0.11400
S667        S  0.46738696  0.66702979  0.18697286    -0.27600
H668        H  0.48442333  0.63284214  0.14160583     0.08600
H669        H  0.49597746  0.58525416  0.00320658     0.27100
H670        H  0.62740015  0.72752288  0.13809449     0.21900
H671        H  0.46973534  0.69680799  0.17540303     0.27200
H672        H  0.55201244  0.62622065  0.17281095     0.16000
C673        C  0.54863174  0.61554280  0.38665030    -0.11300
C674        C  0.53951002  0.63933364  0.39508053     0.15300
C675        C  0.52230852  0.63556257  0.42466654     0.02200
C676        C  0.51287881  0.60717710  0.44394927    -0.15600
C677        C  0.52021649  0.58238023  0.43444406    -0.10500
C678        C  0.53924482  0.58723832  0.40596591     0.08900
C679        C  0.54247657  0.66361448  0.36976420     0.09900
S680        S  0.50830250  0.66390387  0.43742904    -0.24800
H681        H  0.49763104  0.60322494  0.46536353     0.20200
S682        S  0.54890872  0.55634711  0.39108289    -0.30500
H683        H  0.56139414  0.61802088  0.36380059     0.10500
C684        C  0.56972882  0.69650921  0.36826472     0.03700
C685        C  0.57059028  0.71822328  0.34368100    -0.12800
C686        C  0.54504577  0.70736110  0.32012411    -0.08400
C687        C  0.51907397  0.67358031  0.32058246     0.07100
C688        C  0.51770043  0.65248028  0.34566761    -0.13500
S689        S  0.60291790  0.71084582  0.39800097    -0.30500
H690        H  0.59081420  0.74385615  0.34318122     0.11400
S691        S  0.48795909  0.65517557  0.28890173    -0.27600
H692        H  0.49743523  0.62682198  0.34605457     0.08600
H693        H  0.55194379  0.54493002  0.42187711     0.27100
H694        H  0.62290538  0.74290330  0.38473510     0.21900
H695        H  0.51010313  0.67304712  0.26339793     0.27200
H696        H  0.53305105  0.69228691  0.42135171     0.16000
C697        C  0.67030431  0.14796361  0.86692645    -0.11300
C698        C  0.66417338  0.11503428  0.86820941     0.15300
C699        C  0.68345951  0.10604759  0.84838607     0.02200
C700        C  0.70731042  0.12964205  0.82704244    -0.15600
C701        C  0.71306503  0.16251834  0.82529818    -0.10500
C702        C  0.69488988  0.17184868  0.84648750     0.08900
C703        C  0.63566789  0.09037470  0.88841634     0.09900
S704        S  0.67872195  0.06489444  0.84904738    -0.24800
H705        H  0.72111546  0.12201720  0.81128242     0.20200
S706        S  0.70236788  0.21393066  0.84957032    -0.30500
H707        H  0.65568621  0.15515277  0.88203572     0.10500
C708        C  0.63427509  0.09460397  0.92233345     0.03700
C709        C  0.60445761  0.07410109  0.93935730    -0.12800
C710        C  0.57603913  0.04933707  0.92321983    -0.08400
C711        C  0.57837704  0.04347421  0.88981602     0.07100
C712        C  0.60793400  0.06413553  0.87278807    -0.13500
S713        S  0.67010940  0.12677380  0.94377292    -0.30500
H714        H  0.60252661  0.07870127  0.96489588     0.11400
S715        S  0.54361720  0.01150394  0.86713625    -0.27600
H716        H  0.60880352  0.06064533  0.84678516     0.08600
H717        H  0.73741819  0.22889392  0.84735628     0.27100
H718        H  0.65487840  0.12115140  0.97454695     0.21900
H719        H  0.52715755  0.99095278  0.89400743     0.27200
H720        H  0.66830016  0.05785740  0.88166404     0.16000
C721        C  0.44692885  0.06231031  0.87838755    -0.11300
C722        C  0.45488282  0.09421988  0.88907365     0.15300
C723        C  0.46995188  0.10549684  0.91988705     0.02200
C724        C  0.47893494  0.08563548  0.93825142    -0.15600
C725        C  0.47300043  0.05465295  0.92654282    -0.10500
C726        C  0.45583884  0.04244267  0.89677460     0.08900
C727        C  0.45255734  0.11706846  0.86539048     0.09900
S728        S  0.48141527  0.14629859  0.93547923    -0.24800
H729        H  0.49263354  0.09534434  0.96078081     0.20200
S730        S  0.44781219  0.00329419  0.87945089    -0.30500
H731        H  0.43562426  0.05372447  0.85464547     0.10500
C732        C  0.48029081  0.13823852  0.84599188     0.03700
C733        C  0.47759111  0.15963867  0.82363495    -0.12800
C734        C  0.44773488  0.16067949  0.82024566    -0.08400
C735        C  0.42003031  0.13955043  0.84025238     0.07100
C736        C  0.42257985  0.11756326  0.86205019    -0.13500
S737        S  0.51907529  0.13758460  0.84937823    -0.30500
H738        H  0.49887267  0.17538775  0.80842006     0.11400
S739        S  0.38135237  0.14033373  0.84051716    -0.27600
H740        H  0.40136263  0.10137414  0.87720593     0.08600
H741        H  0.44606885  0.98749900  0.90920951     0.27100
H742        H  0.53731193  0.16282978  0.82642715     0.21900
H743        H  0.39722970  0.17542114  0.84122033     0.27200
H744        H  0.45603666  0.14920077  0.91947595     0.16000
C745        C  0.56208447  0.86993708  0.13199169    -0.11300
C746        C  0.53508889  0.87585179  0.13269285     0.15300
C747        C  0.51073798  0.86093382  0.15737938     0.02200
C748        C  0.51369444  0.84027932  0.18050064    -0.15600
C749        C  0.54069827  0.83418400  0.18001652    -0.10500
C750        C  0.56497107  0.84905318  0.15502721     0.08900
C751        C  0.53119208  0.89530996  0.10601975     0.09900
S752        S  0.47485699  0.86666056  0.16023117    -0.24800
H753        H  0.49478991  0.82913074  0.19931558     0.20200
S754        S  0.59884933  0.84065002  0.14965237    -0.30500
H755        H  0.58043598  0.88077993  0.11266605     0.10500
C756        C  0.54574575  0.93030556  0.10771490     0.03700
C757        C  0.53682129  0.94693735  0.08455968    -0.12800
C758        C  0.51366944  0.92916774  0.05980440    -0.08400
C759        C  0.50132261  0.89451094  0.05673322     0.07100
C760        C  0.51007013  0.87796527  0.07988646    -0.13500
S761        S  0.57298150  0.95317517  0.14117930    -0.30500
H762        H  0.54568770  0.97336568  0.08726913     0.11400
S763        S  0.47181626  0.86966688  0.02551766    -0.27600
H764        H  0.49908228  0.85108599  0.07839740     0.08600
H765        H  0.57911363  0.80620805  0.15587205     0.27100
H766        H  0.57959944  0.98502083  0.13120043     0.21900
H767        H  0.48120227  0.89591158  0.00316317     0.27200
H768        H  0.49113061  0.89981791  0.14910589     0.16000
C769        C  0.35914651  0.89201165  0.08159212    -0.11300
C770        C  0.36118462  0.90795010  0.11129517     0.15300
C771        C  0.38842062  0.94052482  0.11654985     0.02200
C772        C  0.41408021  0.95506315  0.09337249    -0.15600
C773        C  0.41299186  0.93813250  0.06467200    -0.10500
C774        C  0.38449361  0.90683761  0.05819034     0.08900
C775        C  0.33719833  0.88813586  0.13761188     0.09900
S776        S  0.39276660  0.96410273  0.15297536    -0.24800
H777        H  0.43607977  0.97895878  0.09864815     0.20200
S778        S  0.38053527  0.88327499  0.02186257    -0.30500
H779        H  0.33845753  0.86700681  0.07730169     0.10500
C780        C  0.30234517  0.87498676  0.13435650     0.03700
C781        C  0.28055539  0.85333263  0.15840166    -0.12800
C782        C  0.29293526  0.84461556  0.18572341    -0.08400
C783        C  0.32795541  0.85946342  0.18981322     0.07100
C784        C  0.34955319  0.88044321  0.16557735    -0.13500
S785        S  0.28566216  0.88593127  0.09968467    -0.30500
H786        H  0.25377079  0.84242622  0.15550364     0.11400
S787        S  0.34665822  0.85343470  0.22588439    -0.27600
H788        H  0.37629022  0.89072592  0.16844822     0.08600
H789        H  0.40114959  0.91086208  0.00218736     0.27100
H790        H  0.25201820  0.86896987  0.10974889     0.21900
H791        H  0.32237218  0.85219175  0.24745067     0.27200
H792        H  0.35838401  0.94852085  0.16004863     0.16000
loop_ 
_geom_bond_atom_site_label_1 
_geom_bond_atom_site_label_2 
_geom_bond_distance 
_geom_bond_site_symmetry_2 
_ccdc_geom_bond_type 
C1            C2   1.396       .  A
C1            C6   1.417       .  A
C1          C758   1.484       .  S
C2            C3   1.394       .  A
C2           H21   1.086       .  S
C3            C4   1.414       .  A
C3          C773   1.484       .  S
C4            C5   1.423       .  A
C4           C11   1.405       .  A
C5            C6   1.422       .  A
C5           C10   1.422   1_564  A
C6            C7   1.406       .  A
C7            C8   1.398   1_554  A
C7           H17   1.082       .  S
C8            C9   1.406   1_565  A
C8           H18   1.084   1_565  S
C9           C10   1.423       .  A
C9           C16   1.418       .  A
C10          C13   1.421       .  A
C11          C12   1.395   1_564  A
C11          H19   1.083       .  S
C12          C13   1.406       .  A
C12          H20   1.083       .  S
C13          C14   1.413       .  A
C14          C15   1.395       .  A
C14         C725   1.480       .  S
C15          C16   1.397       .  A
C15          H22   1.085       .  S
C16         C710   1.487       .  S
O23         Cu31   2.009       .  S
O23          C33   1.278       .  A
O24         Cu31   2.007       .  S
O24          C34   1.278       .  A
O25         Cu31   2.012       .  S
O25          C35   1.279       .  A
O26         Cu31   2.009       .  S
O26          C36   1.276       .  A
O27         Cu32   2.027       .  S
O27          C36   1.281       .  A
O28         Cu32   2.026       .  S
O28          C35   1.279       .  A
O29         Cu32   2.028       .  S
O29          C34   1.279       .  A
O30         Cu32   2.027       .  S
O30          C33   1.280       .  A
Cu31        Cu32   2.363       .  S
C33         C749   1.491       .  S
C34         C686   1.487       .  S
C35         C629   1.499       .  S
C36         C662   1.501       .  S
O37         Cu45   2.021       .  S
O37          C47   1.279       .  A
O38         Cu45   2.013       .  S
O38          C48   1.278       .  A
O39         Cu45   2.027       .  S
O39          C49   1.280       .  A
O40         Cu45   2.023       .  S
O40          C50   1.280       .  A
O41         Cu46   2.009       .  S
O41          C50   1.278       .  A
O42         Cu46   2.002       .  S
O42          C49   1.277       .  A
O43         Cu46   2.001       .  S
O43          C48   1.278       .  A
O44         Cu46   2.004       .  S
O44          C47   1.277       .  A
Cu45        Cu46   2.368       .  S
C47         C614   1.477       .  S
C48         C734   1.488       .  S
C49         C590   1.486       .  S
C50         C566   1.492       .  S
O51         Cu59   2.010       .  S
O51          C61   1.278       .  A
O52         Cu59   2.009       .  S
O52          C62   1.279       .  A
O53         Cu59   2.001       .  S
O53          C63   1.277       .  A
O54         Cu59   2.004       .  S
O54          C64   1.278       .  A
O55         Cu60   2.029       .  S
O55          C64   1.280       .  A
O56         Cu60   2.028       .  S
O56          C63   1.280       .  A
O57         Cu60   2.018       .  S
O57          C62   1.277       .  A
O58         Cu60   2.023       .  S
O58          C61   1.280       .  A
Cu59        Cu60   2.365       .  S
C61         C701   1.491       .  S
C62         C509   1.492       .  S
C63         C485   1.487       .  S
C64         C533   1.492       .  S
O65         Cu73   2.003       .  S
O65          C75   1.277       .  A
O66         Cu73   1.996       .  S
O66          C76   1.275       .  A
O67         Cu73   2.016       .  S
O67          C77   1.279       .  A
O68         Cu73   2.016       .  S
O68          C78   1.279       .  A
O69         Cu74   2.023       .  S
O69          C78   1.278       .  A
O70         Cu74   2.018       .  S
O70          C77   1.278       .  A
O71         Cu74   2.029       .  S
O71          C76   1.281       .  A
O72         Cu74   2.025       .  S
O72          C75   1.280       .  A
Cu73        Cu74   2.368       .  S
C75         C446   1.485       .  S
C76         C413   1.491       .  S
C77         C461   1.490       .  S
C78         C782   1.483       .  S
C79          C80   1.397       .  A
C79          C84   1.417       .  A
C79         C542   1.488       .  S
C80          C81   1.397       .  A
C80          H99   1.085       .  S
C81          C82   1.417       .  A
C81         C398   1.490       .  S
C82          C83   1.424       .  A
C82          C89   1.406   1_655  A
C83          C84   1.423       .  A
C83          C88   1.423   1_656  A
C84          C85   1.406       .  A
C85          C86   1.396   1_656  A
C85          H95   1.082       .  S
C86          C87   1.405       .  A
C86          H96   1.082       .  S
C87          C88   1.424       .  A
C87          C94   1.417       .  A
C88          C91   1.422       .  A
C89          C90   1.397   1_556  A
C89          H97   1.083   1_455  S
C90          C91   1.405       .  A
C90          H98   1.082       .  S
C91          C92   1.415       .  A
C92          C93   1.395       .  A
C92         C437   1.483       .  S
C93          C94   1.396       .  A
C93         H100   1.086       .  S
C94         C374   1.488       .  S
C101        C102   1.398       .  A
C101        C106   1.415       .  A
C101        C518   1.484       .  S
C102        C103   1.396       .  A
C102        H121   1.086       .  S
C103        C104   1.416       .  A
C103        C350   1.487       .  S
C104        C105   1.424       .  A
C104        C111   1.405       .  A
C105        C106   1.422       .  A
C105        C110   1.421   1_655  A
C106        C107   1.407       .  A
C107        C108   1.397   1_655  A
C107        H117   1.082       .  S
C108        C109   1.404       .  A
C108        H118   1.082       .  S
C109        C110   1.424       .  A
C109        C116   1.416       .  A
C110        C113   1.422       .  A
C111        C112   1.396   1_655  A
C111        H119   1.082       .  S
C112        C113   1.405       .  A
C112        H120   1.082       .  S
C113        C114   1.414       .  A
C114        C115   1.394       .  A
C114        C470   1.481       .  S
C115        C116   1.394       .  A
C115        H122   1.086       .  S
C116        C326   1.484       .  S
O123       Cu131   2.022       .  S
O123        C133   1.279       .  A
O124       Cu131   2.020       .  S
O124        C134   1.279       .  A
O125       Cu131   2.022       .  S
O125        C135   1.278       .  A
O126       Cu131   2.026       .  S
O126        C136   1.280       .  A
O127       Cu132   2.009       .  S
O127        C136   1.278       .  A
O128       Cu132   2.018       .  S
O128        C135   1.280       .  A
O129       Cu132   2.011       .  S
O129        C134   1.278       .  A
O130       Cu132   2.010       .  S
O130        C133   1.279       .  A
Cu131      Cu132   2.365       .  S
C133        C365   1.492       .  S
C134        C302   1.483       .  S
C135        C317   1.502       .  S
C136        C269   1.491       .  S
O137       Cu145   2.006       .  S
O137        C147   1.278       .  A
O138       Cu145   2.005       .  S
O138        C148   1.277       .  A
O139       Cu145   2.002       .  S
O139        C149   1.278       .  A
O140       Cu145   2.001       .  S
O140        C150   1.277       .  A
O141       Cu146   2.030       .  S
O141        C150   1.280       .  A
O142       Cu146   2.030       .  S
O142        C149   1.280       .  A
O143       Cu146   2.024       .  S
O143        C148   1.280       .  A
O144       Cu146   2.022       .  S
O144        C147   1.279       .  A
Cu145      Cu146   2.367       .  S
C147        C245   1.487       .  S
C148        C389   1.491       .  S
C149        C221   1.492       .  S
C150        C341   1.484       .  S
C151        C152   1.396       .  A
C151        C156   1.416       .  A
C151        C653   1.486       .  S
C152        C153   1.397       .  A
C152        H171   1.085       .  S
C153        C154   1.415       .  A
C153        C278   1.486       .  S
C154        C155   1.422       .  A
C154        C161   1.405       .  A
C155        C156   1.423       .  A
C155        C160   1.422   1_554  A
C156        C157   1.405       .  A
C157        C158   1.397   1_554  A
C157        H167   1.083       .  S
C158        C159   1.406       .  A
C158        H168   1.082       .  S
C159        C160   1.422       .  A
C159        C166   1.415       .  A
C160        C163   1.424       .  A
C161        C162   1.395   1_554  A
C161        H169   1.082       .  S
C162        C163   1.406       .  A
C162        H170   1.081       .  S
C163        C164   1.418       .  A
C164        C165   1.398       .  A
C164        C581   1.491       .  S
C165        C166   1.397       .  A
C165        H172   1.085       .  S
C166        C230   1.485       .  S
C173        C174   1.396       .  A
C173        C178   1.416       .  A
C173        C293   1.485       .  S
C174        C175   1.397       .  A
C174        H193   1.086       .  S
C175        C176   1.416       .  A
C175        C677   1.485       .  S
C176        C177   1.422       .  A
C176        C183   1.406       .  A
C177        C178   1.423       .  A
C177        C182   1.422       .  A
C178        C179   1.405       .  A
C179        C180   1.396       .  A
C179        H189   1.083       .  S
C180        C181   1.406       .  A
C180        H190   1.082       .  S
C181        C182   1.422       .  A
C181        C188   1.414       .  A
C182        C185   1.424       .  A
C183        C184   1.397       .  A
C183        H191   1.082       .  S
C184        C185   1.406       .  A
C184        H192   1.083       .  S
C185        C186   1.418       .  A
C186        C187   1.396       .  A
C186        C254   1.488       .  S
C187        C188   1.395       .  A
C187        H194   1.085       .  S
C188        C605   1.482       .  S
C195        C196   1.397       .  A
C195        C200   1.416       .  A
C195        C638   1.485       .  S
C196        C197   1.395       .  A
C196        H215   1.084       .  S
C197        C198   1.415       .  A
C197        C422   1.485       .  S
C198        C199   1.423       .  A
C198        C205   1.405       .  A
C199        C200   1.423       .  A
C199        C204   1.421   1_565  A
C200        C201   1.406       .  A
C201        C202   1.397   1_565  A
C201        H211   1.083       .  S
C202        C203   1.406       .  A
C202        H212   1.082       .  S
C203        C204   1.422       .  A
C203        C210   1.416       .  A
C204        C207   1.422       .  A
C205        C206   1.395   1_565  A
C205        H213   1.083       .  S
C206        C207   1.405       .  A
C206        H214   1.083       .  S
C207        C208   1.414       .  A
C208        C209   1.396       .  A
C208        C557   1.483       .  S
C209        C210   1.397       .  A
C209        H216   1.086       .  S
C210        C494   1.484       .  S
C217        C218   1.403       .  A
C217        C222   1.406       .  A
C217        H227   1.084       .  S
C218        C219   1.410       .  A
C218        C223   1.483       .  S
C219        C220   1.397       .  A
C219        S224   1.805       .  S
C220        C221   1.407       .  A
C220        H225   1.084       .  S
C221        C222   1.420       .  A
C222        S226   1.801       .  S
C223        C228   1.410       .  A
C223        C232   1.402       .  A
S224        H240   1.405       .  S
S226        H237   1.408       .  S
C228        C229   1.406       .  A
C228        S233   1.805       .  S
C229        C230   1.404       .  A
C229        H234   1.082       .  S
C230        C231   1.413       .  A
C231        C232   1.399       .  A
C231        S235   1.803       .  S
C232        H236   1.083       .  S
S233        H238   1.407       .  S
S235        H239   1.406       .  S
C241        C242   1.402       .  A
C241        C246   1.399       .  A
C241        H251   1.084       .  S
C242        C243   1.414       .  A
C242        C247   1.488       .  S
C243        C244   1.404       .  A
C243        S248   1.804       .  S
C244        C245   1.407       .  A
C244        H249   1.084       .  S
C245        C246   1.417       .  A
C246        S250   1.803       .  S
C247        C252   1.413       .  A
C247        C256   1.401       .  A
S248        H264   1.406       .  S
S250        H261   1.408       .  S
C252        C253   1.408       .  A
C252        S257   1.806       .  S
C253        C254   1.404       .  A
C253        H258   1.083       .  S
C254        C255   1.414       .  A
C255        C256   1.398       .  A
C255        S259   1.804       .  S
C256        H260   1.085       .  S
S257        H262   1.407       .  S
S259        H263   1.406       .  S
C265        C266   1.403       .  A
C265        C270   1.399       .  A
C265        H275   1.084       .  S
C266        C267   1.413       .  A
C266        C271   1.489       .  S
C267        C268   1.405       .  A
C267        S272   1.803       .  S
C268        C269   1.408       .  A
C268        H273   1.084       .  S
C269        C270   1.417       .  A
C270        S274   1.803       .  S
C271        C276   1.413       .  A
C271        C280   1.403       .  A
S272        H288   1.406       .  S
S274        H285   1.408       .  S
C276        C277   1.405       .  A
C276        S281   1.806       .  S
C277        C278   1.403       .  A
C277        H282   1.083       .  S
C278        C279   1.413       .  A
C279        C280   1.399       .  A
C279        S283   1.804       .  S
C280        H284   1.084       .  S
S281        H286   1.407       .  S
S283        H287   1.407       .  S
C289        C290   1.403       .  A
C289        C294   1.401       .  A
C289        H299   1.085       .  S
C290        C291   1.413       .  A
C290        C295   1.486       .  S
C291        C292   1.402       .  A
C291        S296   1.803       .  S
C292        C293   1.403       .  A
C292        H297   1.085       .  S
C293        C294   1.413       .  A
C294        S298   1.803       .  S
C295        C300   1.410       .  A
C295        C304   1.403       .  A
S296        H312   1.406       .  S
S298        H309   1.405       .  S
C300        C301   1.407       .  A
C300        S305   1.805       .  S
C301        C302   1.406       .  A
C301        H306   1.082       .  S
C302        C303   1.415       .  A
C303        C304   1.400       .  A
C303        S307   1.804       .  S
C304        H308   1.084       .  S
S305        H310   1.407       .  S
S307        H311   1.407       .  S
C313        C314   1.401       .  A
C313        C318   1.404       .  A
C313        H323   1.083       .  S
C314        C315   1.413       .  A
C314        C319   1.490       .  S
C315        C316   1.402       .  A
C315        S320   1.806       .  S
C316        C317   1.410       .  A
C316        H321   1.083       .  S
C317        C318   1.423       .  A
C318        S322   1.799       .  S
C319        C324   1.413       .  A
C319        C328   1.404       .  A
S320        H336   1.406       .  S
S322        H333   1.408       .  S
C324        C325   1.406       .  A
C324        S329   1.806       .  S
C325        C326   1.403       .  A
C325        H330   1.083       .  S
C326        C327   1.412       .  A
C327        C328   1.401       .  A
C327        S331   1.803       .  S
C328        H332   1.084       .  S
S329        H334   1.407       .  S
S331        H335   1.406       .  S
C337        C338   1.402       .  A
C337        C342   1.397       .  A
C337        H347   1.085       .  S
C338        C339   1.413       .  A
C338        C343   1.486       .  S
C339        C340   1.407       .  A
C339        S344   1.803       .  S
C340        C341   1.407       .  A
C340        H345   1.084       .  S
C341        C342   1.415       .  A
C342        S346   1.804       .  S
C343        C348   1.411       .  A
C343        C352   1.403       .  A
S344        H360   1.405       .  S
S346        H357   1.407       .  S
C348        C349   1.404       .  A
C348        S353   1.806       .  S
C349        C350   1.402       .  A
C349        H354   1.083       .  S
C350        C351   1.414       .  A
C351        C352   1.403       .  A
C351        S355   1.803       .  S
C352        H356   1.084       .  S
S353        H358   1.407       .  S
S355        H359   1.405       .  S
C361        C362   1.402       .  A
C361        C366   1.404       .  A
C361        H371   1.084       .  S
C362        C363   1.413       .  A
C362        C367   1.485       .  S
C363        C364   1.399       .  A
C363        S368   1.807       .  S
C364        C365   1.407       .  A
C364        H369   1.084       .  S
C365        C366   1.420       .  A
C366        S370   1.801       .  S
C367        C372   1.411       .  A
C367        C376   1.402       .  A
S368        H384   1.405       .  S
S370        H381   1.408       .  S
C372        C373   1.406       .  A
C372        S377   1.805       .  S
C373        C374   1.403       .  A
C373        H378   1.082       .  S
C374        C375   1.414       .  A
C375        C376   1.400       .  A
C375        S379   1.803       .  S
C376        H380   1.083       .  S
S377        H382   1.407       .  S
S379        H383   1.407   1_455  S
C385        C386   1.403       .  A
C385        C390   1.400       .  A
C385        H395   1.084       .  S
C386        C387   1.412       .  A
C386        C391   1.489       .  S
C387        C388   1.403       .  A
C387        S392   1.803       .  S
C388        C389   1.408       .  A
C388        H393   1.084       .  S
C389        C390   1.419       .  A
C390        S394   1.803       .  S
C391        C396   1.412       .  A
C391        C400   1.403       .  A
S392        H408   1.406       .  S
S394        H405   1.408       .  S
C396        C397   1.406       .  A
C396        S401   1.806       .  S
C397        C398   1.404       .  A
C397        H402   1.083       .  S
C398        C399   1.414       .  A
C399        C400   1.400       .  A
C399        S403   1.804       .  S
C400        H404   1.085       .  S
S401        H406   1.407       .  S
S403        H407   1.407   1_655  S
C409        C410   1.402       .  A
C409        C414   1.402       .  A
C409        H419   1.083       .  S
C410        C411   1.412       .  A
C410        C415   1.490       .  S
C411        C412   1.403       .  A
C411        S416   1.803       .  S
C412        C413   1.407       .  A
C412        H417   1.084       .  S
C413        C414   1.419       .  A
C414        S418   1.811       .  S
C415        C420   1.414       .  A
C415        C424   1.404       .  A
S416        H432   1.406       .  S
S418        H429   1.407       .  S
C420        C421   1.405       .  A
C420        S425   1.807       .  S
C421        C422   1.402       .  A
C421        H426   1.083       .  S
C422        C423   1.413       .  A
C423        C424   1.400       .  A
C423        S427   1.804       .  S
C424        H428   1.084       .  S
S425        H430   1.407       .  S
S427        H431   1.406   1_565  S
C433        C434   1.403       .  A
C433        C438   1.400       .  A
C433        H443   1.083       .  S
C434        C435   1.414       .  A
C434        C439   1.483       .  S
C435        C436   1.402       .  A
C435        S440   1.805       .  S
C436        C437   1.403       .  A
C436        H441   1.083       .  S
C437        C438   1.411       .  A
C438        S442   1.803       .  S
C439        C444   1.409       .  A
C439        C448   1.401       .  A
S440        H456   1.401       .  S
S442        H453   1.406   1_455  S
C444        C445   1.407       .  A
C444        S449   1.805       .  S
C445        C446   1.407       .  A
C445        H450   1.082       .  S
C446        C447   1.417       .  A
C447        C448   1.398       .  A
C447        S451   1.804       .  S
C448        H452   1.083       .  S
S449        H454   1.407       .  S
S451        H455   1.407       .  S
C457        C458   1.401       .  A
C457        C462   1.403       .  A
C457        H467   1.084       .  S
C458        C459   1.413       .  A
C458        C463   1.484       .  S
C459        C460   1.400       .  A
C459        S464   1.806       .  S
C460        C461   1.407       .  A
C460        H465   1.084       .  S
C461        C462   1.419       .  A
C462        S466   1.801       .  S
C463        C468   1.412       .  A
C463        C472   1.402       .  A
S464        H480   1.406       .  S
S466        H477   1.408       .  S
C468        C469   1.405       .  A
C468        S473   1.806       .  S
C469        C470   1.402       .  A
C469        H474   1.082       .  S
C470        C471   1.413       .  A
C471        C472   1.399       .  A
C471        S475   1.804       .  S
C472        H476   1.083       .  S
S473        H478   1.407       .  S
S475        H479   1.406   1_455  S
C481        C482   1.404       .  A
C481        C486   1.406       .  A
C481        H491   1.083       .  S
C482        C483   1.411       .  A
C482        C487   1.484       .  S
C483        C484   1.397       .  A
C483        S488   1.805       .  S
C484        C485   1.406       .  A
C484        H489   1.084       .  S
C485        C486   1.417       .  A
C486        S490   1.802       .  S
C487        C492   1.410       .  A
C487        C496   1.403       .  A
S488        H504   1.405       .  S
S490        H501   1.407       .  S
C492        C493   1.406       .  A
C492        S497   1.806       .  S
C493        C494   1.404       .  A
C493        H498   1.082       .  S
C494        C495   1.412       .  A
C495        C496   1.400       .  A
C495        S499   1.803       .  S
C496        H500   1.083       .  S
S497        H502   1.407       .  S
S499        H503   1.406   1_545  S
C505        C506   1.402       .  A
C505        C510   1.405       .  A
C505        H515   1.083       .  S
C506        C507   1.410       .  A
C506        C511   1.481       .  S
C507        C508   1.397       .  A
C507        S512   1.806       .  S
C508        C509   1.407       .  A
C508        H513   1.083       .  S
C509        C510   1.420       .  A
C510        S514   1.799       .  S
C511        C516   1.410       .  A
C511        C520   1.401       .  A
S512        H528   1.405       .  S
S514        H525   1.408       .  S
C516        C517   1.407       .  A
C516        S521   1.805       .  S
C517        C518   1.405       .  A
C517        H522   1.083       .  S
C518        C519   1.413       .  A
C519        C520   1.397       .  A
C519        S523   1.804       .  S
C520        H524   1.084       .  S
S521        H526   1.407       .  S
S523        H527   1.406       .  S
C529        C530   1.403       .  A
C529        C534   1.405       .  A
C529        H539   1.084       .  S
C530        C531   1.412       .  A
C530        C535   1.485       .  S
C531        C532   1.399       .  A
C531        S536   1.807       .  S
C532        C533   1.408       .  A
C532        H537   1.084       .  S
C533        C534   1.419       .  A
C534        S538   1.801       .  S
C535        C540   1.411       .  A
C535        C544   1.402       .  A
S536        H552   1.405       .  S
S538        H549   1.408       .  S
C540        C541   1.406       .  A
C540        S545   1.805       .  S
C541        C542   1.404       .  A
C541        H546   1.082       .  S
C542        C543   1.415       .  A
C543        C544   1.400       .  A
C543        S547   1.804       .  S
C544        H548   1.083       .  S
S545        H550   1.407       .  S
S547        H551   1.406   1_655  S
C553        C554   1.403       .  A
C553        C558   1.402       .  A
C553        H563   1.083       .  S
C554        C555   1.412       .  A
C554        C559   1.482       .  S
C555        C556   1.400       .  A
C555        S560   1.803       .  S
C556        C557   1.403       .  A
C556        H561   1.083       .  S
C557        C558   1.412       .  A
C558        S562   1.804       .  S
C559        C564   1.408       .  A
C559        C568   1.399       .  A
S560        H576   1.404       .  S
S562        H573   1.405   1_545  S
C564        C565   1.409       .  A
C564        S569   1.805       .  S
C565        C566   1.410       .  A
C565        H570   1.082       .  S
C566        C567   1.420       .  A
C567        C568   1.398       .  A
C567        S571   1.803       .  S
C568        H572   1.083       .  S
S569        H574   1.407       .  S
S571        H575   1.408       .  S
C577        C578   1.403       .  A
C577        C582   1.399       .  A
C577        H587   1.084       .  S
C578        C579   1.415       .  A
C578        C583   1.490       .  S
C579        C580   1.403       .  A
C579        S584   1.803       .  S
C580        C581   1.404       .  A
C580        H585   1.084       .  S
C581        C582   1.415       .  A
C582        S586   1.804       .  S
C583        C588   1.412       .  A
C583        C592   1.403       .  A
S584        H600   1.407       .  S
S586        H597   1.406       .  S
C588        C589   1.407       .  A
C588        S593   1.806       .  S
C589        C590   1.406       .  A
C589        H594   1.083       .  S
C590        C591   1.416       .  A
C591        C592   1.399       .  A
C591        S595   1.804       .  S
C592        H596   1.084       .  S
S593        H598   1.407       .  S
S595        H599   1.408       .  S
C601        C602   1.402       .  A
C601        C606   1.399       .  A
C601        H611   1.085       .  S
C602        C603   1.414       .  A
C602        C607   1.483       .  S
C603        C604   1.401       .  A
C603        S608   1.804       .  S
C604        C605   1.402       .  A
C604        H609   1.085       .  S
C605        C606   1.412       .  A
C606        S610   1.803       .  S
C607        C612   1.410       .  A
C607        C616   1.402       .  A
S608        H624   1.406       .  S
S610        H621   1.406       .  S
C612        C613   1.406       .  A
C612        S617   1.805       .  S
C613        C614   1.404       .  A
C613        H618   1.083       .  S
C614        C615   1.414       .  A
C615        C616   1.398       .  A
C615        S619   1.804       .  S
C616        H620   1.084       .  S
S617        H622   1.407       .  S
S619        H623   1.406       .  S
C625        C626   1.401       .  A
C625        C630   1.405       .  A
C625        H635   1.084       .  S
C626        C627   1.412       .  A
C626        C631   1.485       .  S
C627        C628   1.399       .  A
C627        S632   1.806       .  S
C628        C629   1.409       .  A
C628        H633   1.083       .  S
C629        C630   1.423       .  A
C630        S634   1.800       .  S
C631        C636   1.411       .  A
C631        C640   1.402       .  A
S632        H648   1.406       .  S
S634        H645   1.408       .  S
C636        C637   1.406       .  A
C636        S641   1.805       .  S
C637        C638   1.404       .  A
C637        H642   1.083       .  S
C638        C639   1.414       .  A
C639        C640   1.399       .  A
C639        S643   1.804       .  S
C640        H644   1.084       .  S
S641        H646   1.407       .  S
S643        H647   1.406   1_565  S
C649        C650   1.404       .  A
C649        C654   1.400       .  A
C649        H659   1.084       .  S
C650        C651   1.416       .  A
C650        C655   1.488       .  S
C651        C652   1.404       .  A
C651        S656   1.805       .  S
C652        C653   1.404       .  A
C652        H657   1.084       .  S
C653        C654   1.412       .  A
C654        S658   1.803       .  S
C655        C660   1.408       .  A
C655        C664   1.400       .  A
S656        H672   1.404       .  S
S658        H669   1.404       .  S
C660        C661   1.409       .  A
C660        S665   1.805       .  S
C661        C662   1.413       .  A
C661        H666   1.082       .  S
C662        C663   1.423       .  A
C663        C664   1.399       .  A
C663        S667   1.801       .  S
C664        H668   1.084       .  S
S665        H670   1.407       .  S
S667        H671   1.408       .  S
C673        C674   1.403       .  A
C673        C678   1.401       .  A
C673        H683   1.084       .  S
C674        C675   1.414       .  A
C674        C679   1.485       .  S
C675        C676   1.403       .  A
C675        S680   1.804       .  S
C676        C677   1.403       .  A
C676        H681   1.084       .  S
C677        C678   1.412       .  A
C678        S682   1.802       .  S
C679        C684   1.410       .  A
C679        C688   1.400       .  A
S680        H696   1.402       .  S
S682        H693   1.404       .  S
C684        C685   1.410       .  A
C684        S689   1.805       .  S
C685        C686   1.408       .  A
C685        H690   1.082       .  S
C686        C687   1.416       .  A
C687        C688   1.398       .  A
C687        S691   1.804       .  S
C688        H692   1.083       .  S
S689        H694   1.407       .  S
S691        H695   1.408       .  S
C697        C698   1.404       .  A
C697        C702   1.400       .  A
C697        H707   1.084       .  S
C698        C699   1.413       .  A
C698        C703   1.490       .  S
C699        C700   1.404       .  A
C699        S704   1.803       .  S
C700        C701   1.408       .  A
C700        H705   1.083       .  S
C701        C702   1.417       .  A
C702        S706   1.803       .  S
C703        C708   1.413       .  A
C703        C712   1.403       .  A
S704        H720   1.406       .  S
S706        H717   1.408       .  S
C708        C709   1.406       .  A
C708        S713   1.806       .  S
C709        C710   1.403       .  A
C709        H714   1.083       .  S
C710        C711   1.414       .  A
C711        C712   1.400       .  A
C711        S715   1.804       .  S
C712        H716   1.084       .  S
S713        H718   1.407       .  S
S715        H719   1.406   1_545  S
C721        C722   1.401       .  A
C721        C726   1.399       .  A
C721        H731   1.083       .  S
C722        C723   1.412       .  A
C722        C727   1.478       .  S
C723        C724   1.400       .  A
C723        S728   1.804       .  S
C724        C725   1.403       .  A
C724        H729   1.083       .  S
C725        C726   1.412       .  A
C726        S730   1.803       .  S
C727        C732   1.407       .  A
C727        C736   1.400       .  A
S728        H744   1.405       .  S
S730        H741   1.405   1_545  S
C732        C733   1.400       .  A
C732        S737   1.808       .  S
C733        C734   1.408       .  A
C733        H738   1.082       .  S
C734        C735   1.420       .  A
C735        C736   1.402       .  A
C735        S739   1.801       .  S
C736        H740   1.084       .  S
S737        H742   1.407       .  S
S739        H743   1.408       .  S
C745        C746   1.401       .  A
C745        C750   1.404       .  A
C745        H755   1.084       .  S
C746        C747   1.412       .  A
C746        C751   1.484       .  S
C747        C748   1.400       .  A
C747        S752   1.805       .  S
C748        C749   1.407       .  A
C748        H753   1.084       .  S
C749        C750   1.419       .  A
C750        S754   1.801       .  S
C751        C756   1.410       .  A
C751        C760   1.401       .  A
S752        H768   1.405       .  S
S754        H765   1.408       .  S
C756        C757   1.407       .  A
C756        S761   1.805       .  S
C757        C758   1.404       .  A
C757        H762   1.083       .  S
C758        C759   1.413       .  A
C759        C760   1.399       .  A
C759        S763   1.804       .  S
C760        H764   1.084       .  S
S761        H766   1.407       .  S
S763        H767   1.406       .  S
C769        C770   1.405       .  A
C769        C774   1.401       .  A
C769        H779   1.085       .  S
C770        C771   1.415       .  A
C770        C775   1.490       .  S
C771        C772   1.402       .  A
C771        S776   1.803       .  S
C772        C773   1.403       .  A
C772        H777   1.085       .  S
C773        C774   1.411       .  A
C774        S778   1.803       .  S
C775        C780   1.412       .  A
C775        C784   1.404       .  A
S776        H792   1.406       .  S
S778        H789   1.405       .  S
C780        C781   1.409       .  A
C780        S785   1.806       .  S
C781        C782   1.405       .  A
C781        H786   1.082       .  S
C782        C783   1.414       .  A
C783        C784   1.400       .  A
C783        S787   1.804       .  S
C784        H788   1.083       .  S
S785        H790   1.407       .  S
S787        H791   1.407       .  S
