geometry optimzed in LAMMPS
_audit_creation_date              2020-11-30 
_audit_creation_method            'lammps2cif' 
_symmetry_space_group_name_H-M    'P1' 
_symmetry_Int_Tables_number       1 
_symmetry_cell_setting            triclinic 
loop_ 
_symmetry_equiv_pos_as_xyz 
  x,y,z 
_cell_length_a                    50.25197349 
_cell_length_b                    50.67659184031858 
_cell_length_c                    30.51881375685741 
_cell_angle_alpha                 86.254741215157 
_cell_angle_beta                  91.13609678977504 
_cell_angle_gamma                 119.6412590447471 
loop_ 
_atom_site_label 
_atom_site_type_symbol 
_atom_site_fract_x 
_atom_site_fract_y 
_atom_site_fract_z 
_atom_site_charge 
Zr1        Zr  0.80382873  0.34953304  0.18951944     2.17500
O2          O  0.76153777  0.33933040  0.23864229    -0.51900
O3          O  0.78819514  0.38894015  0.17735247    -0.75100
O4          O  0.81846465  0.35359057  0.26716311    -0.81900
O5          O  0.75030474  0.30077842  0.10282906    -0.83600
O6          O  0.86871514  0.36728715  0.27034274    -0.79300
O7          O  0.75386674  0.30805546  0.17594650    -0.90900
O8          O  0.82003738  0.42613376  0.12772510    -0.76900
O9          O  0.85321512  0.39308881  0.18374761    -0.86400
O10         O  0.80828596  0.36866116  0.11507250    -0.86100
O11         O  0.83805586  0.32927205  0.20536641    -0.72800
O12         O  0.79852806  0.30934665  0.14531444    -0.84900
Zr13       Zr  0.88848060  0.35723387  0.07635090     2.26400
Zr14       Zr  0.88770670  0.37372745  0.19658808     2.06300
Zr15       Zr  0.80224623  0.32901591  0.07144576     2.10000
Zr16       Zr  0.85808792  0.41270406  0.10951659     1.78800
O17         O  0.77409018  0.28025665  0.03840071    -0.93700
O18         O  0.88473588  0.45348478  0.15919637    -0.41600
O19         O  0.85174597  0.37379370  0.06293046    -0.78200
O20         O  0.89520355  0.39668342  0.12311996    -0.96900
O21         O  0.88304213  0.33569647  0.14957917    -0.90200
O22         O  0.83897535  0.31254372  0.08325241    -0.93000
C23         C  0.79640661  0.41364875  0.15300791     1.00700
C24         C  0.73886047  0.29577245  0.14184054     1.13700
C25         C  0.84314075  0.36017615  0.28836071     1.04400
O26         O  0.92316610  0.42800080  0.19959249    -0.95200
O27         O  0.92068081  0.35516869  0.17485765    -0.90900
O28         O  0.93946262  0.38015853  0.11090607    -0.84100
C29         C  0.94352240  0.37333759  0.15082014     1.11100
O30         O  0.80066371  0.25405168  0.21243837    -0.97200
Zr31       Zr  0.83478693  0.29180192  0.15659177     1.88900
O32         O  0.89445559  0.31388514  0.06391202    -0.73800
O33         O  0.92584656  0.37987370  0.25193095    -0.53100
O34         O  0.86412790  0.28065303  0.21187606    -0.97700
O35         O  0.79503212  0.24456912  0.12824935    -0.55000
O36         O  0.86466667  0.27527519  0.11366956    -0.74300
C37         C  0.88413756  0.28686432  0.08133250     0.98000
O38         O  0.92795713  0.38795135  0.02112825    -0.63100
O39         O  0.77533202  0.35016136  0.02750603    -0.57900
O40         O  0.87330038  0.35558329  0.99936591    -0.94600
O41         O  0.82172092  0.33673130  0.99723950    -0.93000
O42         O  0.84787334  0.43409336  0.04181675    -0.93400
O43         O  0.90152701  0.45378975  0.06854390    -0.92200
C44         C  0.84801769  0.34714829  0.97871584     1.16900
H45         H  0.79205581  0.37267229  0.10608551     0.32800
H46         H  0.91552845  0.41396562  0.11916186     0.43700
H47         H  0.83611921  0.29806462  0.06202593     0.37200
H48         H  0.83454364  0.31940136  0.23443939     0.33700
H49         H  0.89037497  0.47251230  0.14117641     0.25500
H50         H  0.92699561  0.39517905  0.27159438     0.31400
H51         H  0.87359488  0.29867395  0.22968553     0.37300
H52         H  0.82658641  0.41907744  0.03453557     0.31800
H53         H  0.76406745  0.33500100  0.00559700     0.30600
H54         H  0.75589622  0.28020046  0.02522601     0.32300
H55         H  0.80492388  0.24047421  0.10389430     0.31300
H56         H  0.90959485  0.44346045  0.05099508     0.35300
H57         H  0.93867840  0.40865717  0.03199790     0.28000
H58         H  0.76935889  0.35680800  0.25743057     0.32300
H59         H  0.80630959  0.23785845  0.21441933     0.35100
H60         H  0.75911801  0.34869742  0.04708575     0.27700
H61         H  0.94298857  0.38070831  0.02380083     0.40600
H62         H  0.91468461  0.43443531  0.22304146     0.30600
H63         H  0.86882741  0.45154899  0.17985857     0.38300
H64         H  0.78064364  0.25017796  0.11355649     0.30100
H65         H  0.91669651  0.36045558  0.27018399     0.30200
H66         H  0.75822661  0.32179484  0.25868584     0.30400
Zr67       Zr  0.80585111  0.35011742  0.68986285     2.17500
O68         O  0.76440250  0.33396199  0.74353160    -0.51900
O69         O  0.79001056  0.38930577  0.67986375    -0.75100
O70         O  0.82253133  0.35592922  0.76728480    -0.81900
O71         O  0.75176223  0.30392438  0.60180835    -0.83600
O72         O  0.87154536  0.36561493  0.76944743    -0.79300
O73         O  0.75431053  0.31137857  0.67480891    -0.90900
O74         O  0.82072859  0.42668687  0.63009658    -0.76900
O75         O  0.85437168  0.39487821  0.68191726    -0.86400
O76         O  0.80905831  0.36920184  0.61545377    -0.86100
O77         O  0.84097053  0.33088041  0.70338643    -0.72800
O78         O  0.80051136  0.31022674  0.64458348    -0.84900
Zr79       Zr  0.89058170  0.36070311  0.57397853     2.26400
Zr80       Zr  0.88976399  0.37660277  0.69447693     2.06300
Zr81       Zr  0.80368123  0.33034273  0.57097099     2.10000
Zr82       Zr  0.85804387  0.41387057  0.60706566     1.78800
O83         O  0.77905174  0.28146728  0.53788832    -0.93700
O84         O  0.88753887  0.46209916  0.64099208    -0.41600
O85         O  0.85252358  0.37559301  0.56074018    -0.78200
O86         O  0.89633962  0.39946936  0.62118688    -0.96900
O87         O  0.88587769  0.33907797  0.64690695    -0.90200
O88         O  0.84165644  0.31537759  0.58077604    -0.93000
C89         C  0.79715135  0.41371232  0.65544186     1.00700
C90         C  0.73962906  0.29925999  0.64028693     1.13700
C91         C  0.84664796  0.35999703  0.78830535     1.04400
O92         O  0.92058211  0.43171607  0.69598935    -0.95200
O93         O  0.92426512  0.35955205  0.67388376    -0.90900
O94         O  0.94144783  0.38393008  0.60879537    -0.84100
C95         C  0.94639061  0.37725553  0.64833565     1.11100
O96         O  0.80232989  0.25468374  0.70591488    -0.97200
Zr97       Zr  0.83811884  0.29419225  0.65340678     1.88900
O98         O  0.89754121  0.31812705  0.55998379    -0.73800
O99         O  0.93187536  0.39153492  0.74607482    -0.53100
O100        O  0.86615168  0.28123204  0.70867739    -0.97700
O101        O  0.80104001  0.24786010  0.61973076    -0.55000
O102        O  0.86935211  0.27945223  0.61041614    -0.74300
C103        C  0.88840995  0.29135484  0.57767414     0.98000
O104        O  0.93141813  0.39111291  0.52038023    -0.63100
O105        O  0.77312019  0.34761185  0.52803634    -0.57900
O106        O  0.87484290  0.36124400  0.49747144    -0.94600
O107        O  0.82299036  0.34032019  0.49670131    -0.93000
O108        O  0.83794927  0.42766138  0.54161321    -0.93400
O109        O  0.89849556  0.45006339  0.55658622    -0.92200
C110        C  0.84919862  0.35210290  0.47748229     1.16900
H111        H  0.79237797  0.37269042  0.60714999     0.32800
H112        H  0.91643798  0.41710984  0.61699220     0.43700
H113        H  0.83925539  0.30141999  0.55894572     0.37200
H114        H  0.83764473  0.32056853  0.73213952     0.33700
H115        H  0.88101851  0.47576569  0.62569455     0.25500
H116        H  0.92856087  0.40285090  0.76860901     0.31400
H117        H  0.88733860  0.29081571  0.69685585     0.37300
H118        H  0.84241942  0.44872300  0.54539510     0.31800
H119        H  0.78822985  0.36637986  0.51128063     0.30600
H120        H  0.76435157  0.28263881  0.51687307     0.32300
H121        H  0.80827211  0.25012202  0.58905739     0.31300
H122        H  0.90592797  0.43783062  0.54241577     0.35300
H123        H  0.94258737  0.41167834  0.53167378     0.28000
H124        H  0.76895545  0.35243351  0.75857805     0.32300
H125        H  0.80758963  0.23823720  0.70651363     0.35100
H126        H  0.76313723  0.33248673  0.50565067     0.27700
H127        H  0.94582814  0.38310564  0.52336683     0.40600
H128        H  0.90957800  0.43730868  0.71676186     0.30600
H129        H  0.87872677  0.45834942  0.67098154     0.38300
H130        H  0.78223819  0.24947866  0.61714961     0.30100
H131        H  0.92850001  0.37236862  0.76173701     0.30200
H132        H  0.76659667  0.32025150  0.76612447     0.30400
Zr133      Zr  0.53583601  0.20114480  0.17072884     2.17500
O134        O  0.53650452  0.23908620  0.21693121    -0.51900
O135        O  0.59076679  0.21935732  0.18103125    -0.75100
O136        O  0.52670151  0.18515200  0.24832165    -0.81900
O137        O  0.55302182  0.25616619  0.07325307    -0.83600
O138        O  0.49143258  0.13510064  0.25425396    -0.79300
O139        O  0.55565742  0.25336895  0.14743890    -0.90900
O140        O  0.60380823  0.19052055  0.14273413    -0.76900
O141        O  0.53681591  0.15479248  0.17684918    -0.86400
O142        O  0.55948438  0.20009879  0.10455011    -0.86100
O143        O  0.48224672  0.16369421  0.17538450    -0.72800
O144        O  0.50423397  0.20429146  0.11242342    -0.84900
Zr145      Zr  0.47741228  0.11633573  0.05629562     2.26400
Zr146      Zr  0.48396517  0.11735076  0.18108460     2.06300
Zr147      Zr  0.52912882  0.20401404  0.04700650     2.10000
Zr148      Zr  0.55892619  0.15259326  0.10980433     1.78800
O149        O  0.50624361  0.23003519  0.00501136    -0.93700
O150        O  0.57191966  0.12349016  0.16409260    -0.41600
O151        O  0.52957257  0.15661087  0.05020060    -0.78200
O152        O  0.50709901  0.11262970  0.11635805    -0.96900
O153        O  0.45303639  0.11810526  0.12094007    -0.90200
O154        O  0.47717880  0.16353915  0.04937735    -0.93000
C155        C  0.61059093  0.21313909  0.16566817     1.00700
C156        C  0.55994134  0.26844947  0.11066546     1.13700
C157        C  0.50856075  0.16064926  0.27083616     1.04400
O158        O  0.50813353  0.09127340  0.21954473    -0.95200
O159        O  0.45226181  0.06629474  0.16238336    -0.90900
O160        O  0.44447296  0.06437836  0.08857539    -0.84100
C161        C  0.44010229  0.05214567  0.12805133     1.11100
O162        O  0.43304685  0.18935839  0.15903574    -0.97200
Zr163      Zr  0.45166722  0.16403353  0.11330868     1.88900
O164        O  0.42867420  0.10532924  0.02557170    -0.73800
O165        O  0.43646734  0.08928880  0.22385223    -0.53100
O166        O  0.40656155  0.12763038  0.15642875    -0.97700
O167        O  0.44511839  0.20416325  0.07506108    -0.55000
O168        O  0.41412395  0.13576034  0.05664036    -0.74300
C169        C  0.41023435  0.11566564  0.02949137     0.98000
O170        O  0.48256485  0.07831634  0.01768934    -0.63100
O171        O  0.57770935  0.23166050  0.00668818    -0.57900
O172        O  0.49196609  0.13349892  0.97986436    -0.94600
O173        O  0.52224271  0.18503288  0.97426220    -0.93000
O174        O  0.60058970  0.17314649  0.05593558    -0.93400
O175        O  0.56511893  0.11590102  0.06973513    -0.92200
C176        C  0.50790144  0.15896451  0.95767031     1.16900
H177        H  0.57978297  0.21736097  0.09977856     0.32800
H178        H  0.50643480  0.09322273  0.11763523     0.43700
H179        H  0.46724345  0.16543312  0.02290019     0.37200
H180        H  0.47317446  0.16582089  0.20154128     0.33700
H181        H  0.55904348  0.10199553  0.15699487     0.25500
H182        H  0.44179664  0.08106499  0.25083933     0.31400
H183        H  0.38897028  0.12343689  0.13721863     0.37300
H184        H  0.59172986  0.17697747  0.02861721     0.31800
H185        H  0.57336614  0.24143594  0.98049222     0.30600
H186        H  0.52360056  0.24724092  0.98860537     0.32300
H187        H  0.44388700  0.19999775  0.04363199     0.31300
H188        H  0.54559675  0.10460425  0.05410763     0.35300
H189        H  0.50101094  0.08978333  0.99862826     0.28000
H190        H  0.55305982  0.24364678  0.23833818     0.32300
H191        H  0.41211990  0.18332204  0.14863550     0.35100
H192        H  0.59118864  0.24875787  0.02472991     0.27700
H193        H  0.48868156  0.06758594  0.04045482     0.40600
H194        H  0.49118580  0.07357850  0.23584279     0.30600
H195        H  0.59303540  0.12865720  0.15613610     0.38300
H196        H  0.46508766  0.22294234  0.07761240     0.30100
H197        H  0.43208877  0.10496909  0.23384852     0.30200
H198        H  0.51721332  0.22882927  0.23443153     0.30400
Zr199      Zr  0.53487117  0.20334546  0.66817247     2.17500
O200        O  0.53815861  0.24141394  0.71642349    -0.51900
O201        O  0.59003457  0.22155058  0.67217007    -0.75100
O202        O  0.53189954  0.18784442  0.74587329    -0.81900
O203        O  0.53945282  0.25824613  0.57515322    -0.83600
O204        O  0.49891667  0.13732767  0.75093269    -0.79300
O205        O  0.55453775  0.25549830  0.64523740    -0.89100
O206        O  0.60153645  0.19685658  0.62335689    -0.76900
O207        O  0.53882629  0.15869226  0.66645071    -0.86400
O208        O  0.55301950  0.20467611  0.59621346    -0.86100
O209        O  0.48248941  0.16383234  0.68067384    -0.72800
O210        O  0.49780321  0.20569993  0.61881774    -0.84900
Zr211      Zr  0.46862070  0.11973039  0.55670261     2.26400
Zr212      Zr  0.48737343  0.11918787  0.67802881     2.06300
Zr213      Zr  0.51677192  0.20718199  0.54727455     2.10000
Zr214      Zr  0.55493305  0.15869924  0.59341345     1.78800
O215        O  0.48665947  0.22878176  0.51434405    -0.93700
O216        O  0.57744014  0.13101007  0.63204903    -0.41600
O217        O  0.51929878  0.16135030  0.54345342    -0.78200
O218        O  0.50440650  0.11639531  0.60680450    -0.96900
O219        O  0.45130874  0.12064189  0.62751573    -0.90200
O220        O  0.46595107  0.16555045  0.55665690    -0.93000
C221        C  0.60930257  0.21716299  0.65115167     1.00700
C222        C  0.55195239  0.27007615  0.61137636     1.13700
C223        C  0.51593600  0.16256192  0.76816477     1.04400
O224        O  0.51678637  0.09274919  0.68540668    -0.95200
O225        O  0.44054690  0.07421304  0.66501926    -0.90900
O226        O  0.43005283  0.07086971  0.59250509    -0.84100
C227        C  0.42409499  0.06026982  0.63287358     1.11100
O228        O  0.43541210  0.19296569  0.67781695    -0.97200
Zr229      Zr  0.44611174  0.16407980  0.62700206     1.88900
O230        O  0.41953409  0.10991326  0.53085627    -0.73800
O231        O  0.45903748  0.08060335  0.73707074    -0.53100
O232        O  0.40641629  0.12945255  0.67967128    -0.97700
O233        O  0.43191636  0.19993430  0.59213840    -0.55000
O234        O  0.40283265  0.13128527  0.57897762    -0.74300
C235        C  0.39911754  0.11508065  0.54580412     0.98000
O236        O  0.47166162  0.08039109  0.51891969    -0.63100
O237        O  0.55971048  0.23942098  0.49766552    -0.57900
O238        O  0.47937902  0.13648923  0.47959544    -0.94600
O239        O  0.50784743  0.18829087  0.47442982    -0.93000
O240        O  0.58931142  0.18494189  0.53075300    -0.93400
O241        O  0.55855283  0.12260242  0.54839138    -0.92200
C242        C  0.49411233  0.16227381  0.45765198     1.16900
H243        H  0.57272111  0.22252443  0.58997298     0.32800
H244        H  0.50419477  0.09738359  0.60430413     0.43700
H245        H  0.45348848  0.16712756  0.53329496     0.37200
H246        H  0.47539462  0.16509798  0.70921785     0.33700
H247        H  0.59802190  0.13944271  0.61846013     0.25500
H248        H  0.47431322  0.08065892  0.75812365     0.31400
H249        H  0.41663449  0.12104524  0.69948250     0.37300
H250        H  0.57651526  0.18804420  0.50819050     0.31800
H251        H  0.55675680  0.25687266  0.48836468     0.30600
H252        H  0.50043772  0.24437505  0.49190191     0.32300
H253        H  0.42702992  0.19399523  0.56149518     0.31300
H254        H  0.54954926  0.12435312  0.51995122     0.35300
H255        H  0.49283186  0.09052101  0.50692205     0.28000
H256        H  0.55602615  0.24627422  0.73538274     0.32300
H257        H  0.41294888  0.18456794  0.67716478     0.35100
H258        H  0.57794868  0.24809490  0.51654998     0.27700
H259        H  0.47134638  0.06592675  0.54261743     0.40600
H260        H  0.52287983  0.09409935  0.71657999     0.30600
H261        H  0.58150817  0.13850504  0.66195710     0.38300
H262        H  0.45128429  0.21961361  0.58973500     0.30100
H263        H  0.44753920  0.08828015  0.75306448     0.30200
H264        H  0.52004271  0.23093368  0.73629841     0.30400
Zr265      Zr  0.66071294  0.47147235  0.16013043     2.17500
O266        O  0.67824636  0.44707563  0.21609910    -0.51900
O267        O  0.62809616  0.41524962  0.15313440    -0.75100
O268        O  0.65177714  0.48004909  0.23641323    -0.81900
O269        O  0.70837938  0.46647641  0.07487703    -0.83600
O270        O  0.62820840  0.50828004  0.23497634    -0.79300
O271        O  0.70872417  0.47309040  0.14761285    -0.90900
O272        O  0.58818401  0.40640191  0.10884657    -0.76900
O273        O  0.61246290  0.46914539  0.15322713    -0.86400
O274        O  0.64410066  0.45595376  0.08765016    -0.86100
O275        O  0.67229166  0.52346261  0.16614745    -0.72800
O276        O  0.69969257  0.50991327  0.11037837    -0.84900
Zr277      Zr  0.64230571  0.54174658  0.03637941     2.26400
Zr278      Zr  0.62329538  0.52024762  0.15877481     2.06300
Zr279      Zr  0.68242562  0.49288558  0.03907413     2.10000
Zr280      Zr  0.59594951  0.45453767  0.08071577     1.78800
O281        O  0.73343550  0.52371591  0.00664180    -0.93700
O282        O  0.54976114  0.43233285  0.12652080    -0.41600
O283        O  0.63400403  0.49116660  0.03091360    -0.78200
O284        O  0.60383299  0.50438211  0.08686062    -0.96900
O285        O  0.66020984  0.55789506  0.10781667    -0.90200
O286        O  0.69091198  0.54339303  0.04223254    -0.93000
C287        C  0.60387805  0.39727714  0.13183119     1.00700
C288        C  0.71723379  0.46480756  0.11448247     1.13700
C289        C  0.64005182  0.49399106  0.25568918     1.04400
O290        O  0.57244104  0.49515037  0.19255151    -0.95200
O291        O  0.59660391  0.54357089  0.12364783    -0.90900
O292        O  0.62945639  0.57674533  0.07349947    -0.84100
C293        C  0.61118330  0.57049936  0.10655055     1.11100
O294        O  0.74493574  0.57151053  0.17227086    -0.97200
Zr295      Zr  0.70852444  0.56106213  0.11286564     1.88900
O296        O  0.68239423  0.59103893  0.00927843    -0.73800
O297        O  0.64006993  0.56563433  0.19934124    -0.53100
O298        O  0.71254351  0.60157119  0.15623102    -0.97700
O299        O  0.75982129  0.57541763  0.08722656    -0.55000
O300        O  0.72092457  0.60398916  0.05814817    -0.74300
C301        C  0.70886285  0.60967050  0.02357748     0.98000
O302        O  0.60397302  0.54525811  0.99018378    -0.63100
O303        O  0.67606339  0.45243377  0.99352182    -0.57900
O304        O  0.64359148  0.52719393  0.96126036    -0.94600
O305        O  0.66693860  0.49836961  0.96461889    -0.93000
O306        O  0.58441067  0.42393429  0.01746175    -0.93400
O307        O  0.55328775  0.45115354  0.03731366    -0.92200
C308        C  0.65362768  0.51125716  0.94344104     1.16900
H309        H  0.64330713  0.43731106  0.08062305     0.32800
H310        H  0.58426457  0.50312526  0.08112885     0.43700
H311        H  0.70509480  0.55590315  0.01887245     0.37200
H312        H  0.68079367  0.53044232  0.19446259     0.33700
H313        H  0.55534480  0.42602221  0.15503675     0.25500
H314        H  0.62485998  0.55941964  0.22347504     0.31400
H315        H  0.72983208  0.62046210  0.14274454     0.37300
H316        H  0.60432580  0.42611250  0.00883195     0.31800
H317        H  0.69718046  0.45714500  0.98650325     0.30600
H318        H  0.74737089  0.52275610  0.02927190     0.32300
H319        H  0.75900551  0.57760059  0.05484767     0.31300
H320        H  0.56302477  0.46548950  0.01140905     0.35300
H321        H  0.58537160  0.53650968  0.00904970     0.28000
H322        H  0.66006983  0.43342806  0.23473504     0.32300
H323        H  0.76067764  0.59321747  0.16734974     0.35100
H324        H  0.66770054  0.43380993  0.01344552     0.27700
H325        H  0.61087379  0.56728535  0.98674001     0.40600
H326        H  0.56994126  0.47591787  0.20681119     0.30600
H327        H  0.54700938  0.44974020  0.13292215     0.38300
H328        H  0.76156958  0.55689683  0.09313007     0.30100
H329        H  0.65906590  0.56882022  0.21408805     0.30200
H330        H  0.69212257  0.46329040  0.23519831     0.30400
Zr331      Zr  0.65499338  0.46818578  0.66345779     2.17500
O332        O  0.67309938  0.44601736  0.72210139    -0.51900
O333        O  0.61907985  0.41295487  0.66254886    -0.75100
O334        O  0.64606074  0.47788472  0.73834044    -0.81900
O335        O  0.70882177  0.46679281  0.57918081    -0.83600
O336        O  0.62049880  0.50419435  0.73576157    -0.79300
O337        O  0.69746261  0.45976278  0.65218010    -0.90900
O338        O  0.58014516  0.40437666  0.61652684    -0.76900
O339        O  0.60716613  0.46649375  0.65375969    -0.86400
O340        O  0.63930956  0.45199612  0.59124473    -0.86100
O341        O  0.66836348  0.52066028  0.66821775    -0.72800
O342        O  0.69531892  0.50529723  0.61436984    -0.84900
Zr343      Zr  0.64028229  0.53850493  0.53663959     2.26400
Zr344      Zr  0.61976957  0.51823775  0.65890396     2.06300
Zr345      Zr  0.67880008  0.48809408  0.54284619     2.10000
Zr346      Zr  0.59212939  0.45191113  0.58054409     1.78800
O347        O  0.72938512  0.51703159  0.50855460    -0.93700
O348        O  0.54215657  0.43485449  0.61408543    -0.41600
O349        O  0.63129576  0.48767388  0.53156708    -0.78200
O350        O  0.60095012  0.50195878  0.58669577    -0.96900
O351        O  0.65788230  0.55494738  0.60817877    -0.90200
O352        O  0.68812344  0.53899476  0.54442595    -0.93000
C353        C  0.59451632  0.39514556  0.64228713     1.00700
C354        C  0.71230812  0.45909161  0.61909109     1.13700
C355        C  0.63329880  0.49098822  0.75693763     1.04400
O356        O  0.56976171  0.49978548  0.69299276    -0.95200
O357        O  0.59420687  0.54145853  0.62030120    -0.90900
O358        O  0.62858440  0.57481549  0.57234251    -0.84100
C359        C  0.60998072  0.56864040  0.60491484     1.11100
O360        O  0.74404979  0.56685894  0.67110089    -0.97200
Zr361      Zr  0.70573095  0.55703532  0.61470274     1.88900
O362        O  0.68044991  0.58778468  0.51074342    -0.73800
O363        O  0.64089406  0.56487837  0.69767108    -0.53100
O364        O  0.71384431  0.59800953  0.66036795    -0.97700
O365        O  0.75530878  0.56860438  0.58493245    -0.55000
O366        O  0.71847771  0.60038536  0.56043992    -0.74300
C367        C  0.70670003  0.60630344  0.52570684     0.98000
O368        O  0.60133556  0.54050740  0.49009782    -0.63100
O369        O  0.66741132  0.44296562  0.50455387    -0.57900
O370        O  0.64527347  0.52512603  0.46194484    -0.94600
O371        O  0.66789337  0.49566684  0.46683483    -0.93000
O372        O  0.58176121  0.41455393  0.52686823    -0.93400
O373        O  0.55762637  0.45157221  0.52309962    -0.92200
C374        C  0.65571727  0.50927852  0.44469813     1.16900
H375        H  0.63738608  0.43243802  0.58694106     0.32800
H376        H  0.58159041  0.50085047  0.57973569     0.43700
H377        H  0.70250835  0.55131278  0.52115208     0.37200
H378        H  0.67651385  0.52763767  0.69667533     0.33700
H379        H  0.54316245  0.42631823  0.64379196     0.25500
H380        H  0.62770817  0.55954628  0.72414616     0.31400
H381        H  0.70734826  0.61067476  0.64218153     0.37300
H382        H  0.59160428  0.42668860  0.49927022     0.31800
H383        H  0.66439984  0.42713849  0.52781273     0.30600
H384        H  0.73333997  0.50145674  0.49705102     0.32300
H385        H  0.75400492  0.57190275  0.55283321     0.31300
H386        H  0.57076000  0.46910116  0.50256019     0.35300
H387        H  0.58457848  0.53661740  0.51060511     0.28000
H388        H  0.65485245  0.43199558  0.74038547     0.32300
H389        H  0.76081019  0.58790788  0.66411919     0.35100
H390        H  0.64674405  0.43597710  0.49237819     0.27700
H391        H  0.61030330  0.56224141  0.48007034     0.40600
H392        H  0.56091644  0.47744215  0.69667802     0.30600
H393        H  0.54181934  0.45375415  0.61936065     0.38300
H394        H  0.75556956  0.54918735  0.58864386     0.30100
H395        H  0.66068757  0.56786659  0.70915075     0.30200
H396        H  0.68628543  0.46265043  0.74107558     0.30400
Zr397      Zr  0.32439844  0.80137094  0.16568207     2.17500
O398        O  0.29299350  0.76357958  0.11394955    -0.51900
O399        O  0.36451601  0.78661826  0.16585789    -0.75100
O400        O  0.33730004  0.82005700  0.08945017    -0.81900
O401        O  0.27724434  0.74160293  0.25447915    -0.83600
O402        O  0.34302832  0.86723929  0.08498735    -0.79300
O403        O  0.29457843  0.74839176  0.18423290    -0.90900
O404        O  0.40147500  0.81503479  0.21365401    -0.76900
O405        O  0.36927819  0.84921087  0.17035087    -0.86400
O406        O  0.34216443  0.80021238  0.23806994    -0.86100
O407        O  0.30496675  0.83632041  0.15366596    -0.72800
O408        O  0.28309201  0.79354851  0.21354221    -0.84900
Zr409      Zr  0.33235020  0.87832091  0.28210648     2.26400
Zr410      Zr  0.35064259  0.88428235  0.15903225     2.06300
Zr411      Zr  0.30129983  0.79188847  0.28538178     2.10000
Zr412      Zr  0.38681971  0.84873787  0.24364827     1.78800
O413        O  0.24955640  0.76323982  0.31606895    -0.93700
O414        O  0.43648047  0.88152303  0.20804016    -0.41600
O415        O  0.34696286  0.84008898  0.29336740    -0.78200
O416        O  0.37247133  0.88696776  0.23091104    -0.96900
O417        O  0.31213013  0.87806046  0.21061661    -0.90200
O418        O  0.28653295  0.83023092  0.27768163    -0.93000
C419        C  0.38961362  0.79405711  0.18665806     1.00700
C420        C  0.27890394  0.73168316  0.21737567     1.13700
C421        C  0.34046083  0.84382696  0.06737850     1.04400
O422        O  0.40535467  0.91898069  0.14838174    -0.95200
O423        O  0.33551814  0.91768510  0.18795406    -0.90900
O424        O  0.36070182  0.93080932  0.24971070    -0.84100
C425        C  0.35549844  0.93803882  0.21079006     1.11100
O426        O  0.23021270  0.79721429  0.15475156    -0.97200
Zr427      Zr  0.26690186  0.83109039  0.20655801     1.88900
O428        O  0.29002677  0.88563650  0.29890717    -0.73800
O429        O  0.35645971  0.92393077  0.10364509    -0.53100
O430        O  0.25599938  0.86266117  0.15387024    -0.97700
O431        O  0.21827997  0.79228532  0.23960643    -0.55000
O432        O  0.25138729  0.86057626  0.25154413    -0.74300
C433        C  0.26354537  0.87810635  0.28363331     0.98000
O434        O  0.35659796  0.91503310  0.33797920    -0.63100
O435        O  0.31823547  0.76157945  0.33041936    -0.57900
O436        O  0.33170828  0.85829278  0.35740709    -0.94600
O437        O  0.30678366  0.80655216  0.36004666    -0.93000
O438        O  0.39864222  0.82650545  0.30908922    -0.93400
O439        O  0.42391924  0.88693742  0.29029614    -0.92200
C440        C  0.32025038  0.83197988  0.37825972     1.16900
H441        H  0.34625791  0.78363602  0.24401664     0.32800
H442        H  0.39054164  0.90652067  0.23391624     0.43700
H443        H  0.27196391  0.82687644  0.30049202     0.37200
H444        H  0.29573667  0.83417058  0.12513311     0.33700
H445        H  0.44878207  0.87154002  0.21567292     0.25500
H446        H  0.37049751  0.92475394  0.08060786     0.31400
H447        H  0.27550449  0.87553605  0.13749540     0.37300
H448        H  0.38222958  0.80494330  0.31120743     0.31800
H449        H  0.29993056  0.74687133  0.34805392     0.30600
H450        H  0.24771299  0.74384927  0.32848125     0.32300
H451        H  0.21915361  0.79741988  0.27053409     0.31300
H452        H  0.41141129  0.88839895  0.31368997     0.35300
H453        H  0.37873557  0.92593439  0.33052103     0.28000
H454        H  0.30741371  0.76154611  0.09468571     0.32300
H455        H  0.21759894  0.80649596  0.14511512     0.35100
H456        H  0.32137207  0.74902797  0.30981752     0.27700
H457        H  0.34991255  0.93031987  0.33225967     0.40600
H458        H  0.41000963  0.91546991  0.11864783     0.30600
H459        H  0.43264284  0.87904235  0.17623178     0.38300
H460        H  0.21959505  0.77338029  0.24129612     0.30100
H461        H  0.33626794  0.91582812  0.08939862     0.30200
H462        H  0.28349279  0.77308231  0.09482705     0.30400
Zr463      Zr  0.31436048  0.78969717  0.67152393     2.17500
O464        O  0.29528501  0.74430591  0.63013463    -0.51900
O465        O  0.35284282  0.77260573  0.67330516    -0.75100
O466        O  0.31532334  0.80190798  0.59231513    -0.81900
O467        O  0.28428685  0.73917245  0.76959010    -0.83600
O468        O  0.33785267  0.85311346  0.58194985    -0.79300
O469        O  0.26921728  0.74778900  0.70424799    -0.90900
O470        O  0.39503676  0.80788634  0.70675851    -0.76900
O471        O  0.35961775  0.83769106  0.66540615    -0.86400
O472        O  0.33917447  0.79518703  0.74072536    -0.86100
O473        O  0.29470545  0.82435450  0.65823328    -0.72800
O474        O  0.27836204  0.78703343  0.72560134    -0.84900
Zr475      Zr  0.33317989  0.87803435  0.77571020     2.26400
Zr476      Zr  0.34054536  0.87202180  0.65292562     2.06300
Zr477      Zr  0.30331059  0.79128510  0.79407284     2.10000
Zr478      Zr  0.38378500  0.84428168  0.73494287     1.78800
O479        O  0.25349415  0.76328156  0.83082097    -0.93700
O480        O  0.42777720  0.87585255  0.68672370    -0.41600
O481        O  0.34876746  0.84051283  0.78961871    -0.78200
O482        O  0.36805917  0.88135690  0.72022227    -0.96900
O483        O  0.30723919  0.87162739  0.70801154    -0.90200
O484        O  0.28784614  0.82914031  0.78344351    -0.93000
C485        C  0.38037911  0.78302881  0.68758440     1.00700
C486        C  0.27099627  0.72945061  0.73294507     1.13700
C487        C  0.32617762  0.82659579  0.56758855     1.04400
O488        O  0.39061788  0.90601634  0.61919911    -0.95200
O489        O  0.35212989  0.92169780  0.66579852    -0.90900
O490        O  0.34707957  0.92786095  0.73724960    -0.84100
C491        C  0.35291542  0.93778722  0.69652656     1.11100
O492        O  0.21927478  0.78926411  0.67243082    -0.97200
Zr493      Zr  0.26191009  0.82428143  0.71609039     1.88900
O494        O  0.29270290  0.88611798  0.80092301    -0.73800
O495        O  0.31419695  0.88985374  0.60145768    -0.53100
O496        O  0.24581953  0.85094393  0.66195849    -0.97700
O497        O  0.21741899  0.78702716  0.75965425    -0.55000
O498        O  0.25068259  0.85711352  0.76085666    -0.74300
C499        C  0.26495738  0.87697534  0.78966369     0.98000
O500        O  0.37544184  0.92010742  0.81122454    -0.63100
O501        O  0.32383725  0.76708473  0.84514794    -0.57900
O502        O  0.33376328  0.86491282  0.85396454    -0.94600
O503        O  0.31722848  0.81415616  0.86426977    -0.93000
O504        O  0.40508318  0.82708895  0.79527692    -0.93400
O505        O  0.42509105  0.88372787  0.77526138    -0.92200
C506        C  0.32745603  0.84079043  0.87836809     1.16900
H507        H  0.34381887  0.77922142  0.74894209     0.32800
H508        H  0.38576153  0.90151175  0.71821350     0.43700
H509        H  0.27543149  0.82773610  0.80816077     0.37200
H510        H  0.28365886  0.82063664  0.63099894     0.33700
H511        H  0.42278905  0.86560411  0.65878921     0.25500
H512        H  0.32854826  0.90006310  0.57624449     0.31400
H513        H  0.25417227  0.87165823  0.67230344     0.37300
H514        H  0.39180975  0.82380619  0.82094788     0.31800
H515        H  0.30564264  0.74841352  0.85726384     0.30600
H516        H  0.24937555  0.74202564  0.83454023     0.32300
H517        H  0.22201575  0.79329297  0.79017650     0.31300
H518        H  0.41905625  0.89940874  0.77806159     0.35300
H519        H  0.38454433  0.91068085  0.83130843     0.28000
H520        H  0.31096645  0.74907799  0.60721512     0.32300
H521        H  0.20248588  0.79368225  0.67738088     0.35100
H522        H  0.33433243  0.75965103  0.82651707     0.27700
H523        H  0.39122095  0.93101194  0.78784714     0.40600
H524        H  0.39340712  0.89423003  0.59687734     0.30600
H525        H  0.42682847  0.89472567  0.67982305     0.38300
H526        H  0.21837550  0.76796487  0.75985397     0.30100
H527        H  0.29707404  0.87129563  0.58989397     0.30200
H528        H  0.27740505  0.74289816  0.61396356     0.30400
Zr529      Zr  0.20716019  0.53632466  0.17553262     2.17500
O530        O  0.24398754  0.53837626  0.12243966    -0.51900
O531        O  0.22564015  0.59115074  0.16756289    -0.75100
O532        O  0.18986317  0.53122560  0.09996807    -0.81900
O533        O  0.26313619  0.55494062  0.26718226    -0.83600
O534        O  0.13951192  0.49606742  0.10071503    -0.79300
O535        O  0.25971102  0.55611351  0.19300095    -0.90900
O536        O  0.18276739  0.59271096  0.17743357    -0.76900
O537        O  0.15996170  0.53615203  0.17429858    -0.86400
O538        O  0.20586482  0.55971024  0.24044914    -0.86100
O539        O  0.17020480  0.48283997  0.17757482    -0.72800
O540        O  0.21121230  0.50475860  0.23526389    -0.84900
Zr541      Zr  0.12172618  0.47647423  0.30085054     2.26400
Zr542      Zr  0.12319632  0.48353006  0.17624454     2.06300
Zr543      Zr  0.21040128  0.52923363  0.29875960     2.10000
Zr544      Zr  0.15759952  0.55818906  0.23968651     1.78800
O545        O  0.23870333  0.50926530  0.34157943    -0.93700
O546        O  0.11779686  0.56643495  0.20580716    -0.41600
O547        O  0.16201068  0.52857031  0.30033292    -0.78200
O548        O  0.11800033  0.50635507  0.23966935    -0.96900
O549        O  0.12408099  0.45255736  0.23796452    -0.90200
O550        O  0.16992107  0.47744292  0.30338070    -0.93000
C551        C  0.21169375  0.60617699  0.17276089     1.00700
C552        C  0.27520647  0.56180816  0.22814428     1.13700
C553        C  0.16472091  0.51434736  0.08068720     1.04400
O554        O  0.09112838  0.49981501  0.13546199    -0.95200
O555        O  0.07170285  0.45281200  0.19885297    -0.90900
O556        O  0.06881700  0.44496043  0.27335058    -0.84100
C557        C  0.05688785  0.44108316  0.23468488     1.11100
O558        O  0.19943936  0.43854009  0.19287836    -0.97200
Zr559      Zr  0.17103630  0.45230938  0.24166106     1.88900
O560        O  0.11122485  0.42805944  0.33503714    -0.73800
O561        O  0.10288969  0.43574834  0.14063887    -0.53100
O562        O  0.13746835  0.40485328  0.20772027    -0.97700
O563        O  0.21061676  0.44677946  0.28187656    -0.55000
O564        O  0.14202359  0.41409019  0.30220462    -0.74300
C565        C  0.12170423  0.40985096  0.33128380     0.98000
O566        O  0.08531394  0.48199542  0.34548918    -0.63100
O567        O  0.23690877  0.57743991  0.33382439    -0.57900
O568        O  0.13929460  0.49003780  0.37522484    -0.94600
O569        O  0.19135906  0.51961997  0.37308225    -0.93000
O570        O  0.19027909  0.60361149  0.27844104    -0.93400
O571        O  0.12871506  0.57131839  0.28837990    -0.92200
C572        C  0.16545790  0.50544877  0.39334274     1.16900
H573        H  0.22274435  0.57999131  0.24333180     0.32800
H574        H  0.09832502  0.50544408  0.24005411     0.43700
H575        H  0.17192421  0.46751669  0.33030533     0.37200
H576        H  0.17247184  0.47432892  0.15141554     0.33700
H577        H  0.12857828  0.58778208  0.19348122     0.25500
H578        H  0.09173198  0.43800570  0.11486524     0.31400
H579        H  0.11658062  0.40198733  0.21032723     0.37300
H580        H  0.19493530  0.59589615  0.30650192     0.31800
H581        H  0.24804712  0.57379997  0.35846939     0.30600
H582        H  0.25430102  0.52677063  0.35716935     0.32300
H583        H  0.20275600  0.42457244  0.28522288     0.31300
H584        H  0.11820785  0.55333391  0.30935470     0.35300
H585        H  0.07201439  0.48553181  0.32437330     0.28000
H586        H  0.24815450  0.55550906  0.10089469     0.32300
H587        H  0.19468656  0.41773499  0.20333738     0.35100
H588        H  0.25321180  0.59167380  0.31276980     0.27700
H589        H  0.07194539  0.46143984  0.35951787     0.40600
H590        H  0.07759214  0.48242492  0.11790201     0.30600
H591        H  0.11168671  0.55412025  0.17977942     0.38300
H592        H  0.20963498  0.45246199  0.31197022     0.30100
H593        H  0.12095070  0.43588632  0.12800575     0.30200
H594        H  0.23303946  0.51978830  0.10596788     0.30400
Zr595      Zr  0.21496079  0.53798921  0.67730772     2.17500
O596        O  0.25833966  0.55627940  0.62660545    -0.51900
O597        O  0.23694862  0.59344342  0.67247335    -0.75100
O598        O  0.19944243  0.52649897  0.60104651    -0.81900
O599        O  0.26685316  0.55857420  0.76939410    -0.83600
O600        O  0.14763909  0.49991075  0.59901760    -0.79300
O601        O  0.26138174  0.54025899  0.70250757    -0.90900
O602        O  0.19324604  0.59435533  0.67254656    -0.76900
O603        O  0.16786026  0.53828825  0.67081605    -0.86400
O604        O  0.21097538  0.56158504  0.74083630    -0.86100
O605        O  0.17695413  0.48473413  0.67831019    -0.72800
O606        O  0.21593477  0.50629730  0.73927777    -0.84900
Zr607      Zr  0.12514605  0.47984176  0.79715192     2.26400
Zr608      Zr  0.13009747  0.48583156  0.67321708     2.06300
Zr609      Zr  0.21367071  0.53149776  0.80111847     2.10000
Zr610      Zr  0.16334100  0.56116821  0.73385511     1.78800
O611        O  0.24395700  0.51334204  0.84277919    -0.93700
O612        O  0.12623302  0.56965640  0.69186525    -0.41600
O613        O  0.16575793  0.53192255  0.79702542    -0.78200
O614        O  0.12334790  0.50949925  0.73412465    -0.96900
O615        O  0.12857393  0.45470359  0.73641579    -0.90200
O616        O  0.17269661  0.47972037  0.80448531    -0.93000
C617        C  0.22230809  0.60810368  0.67337981     1.00700
C618        C  0.27815366  0.55580924  0.73333458     1.13700
C619        C  0.17398597  0.51349928  0.58050587     1.04400
O620        O  0.09625472  0.50145682  0.63617646    -0.95200
O621        O  0.07823134  0.45196704  0.69219114    -0.90900
O622        O  0.07309313  0.44968211  0.76652761    -0.84100
C623        C  0.06236513  0.44281149  0.72750892     1.11100
O624        O  0.20700939  0.43901705  0.70534896    -0.97200
Zr625      Zr  0.17522924  0.45415757  0.74394648     1.88900
O626        O  0.11207796  0.43066162  0.83143005    -0.73800
O627        O  0.11514137  0.44198652  0.62996705    -0.53100
O628        O  0.14558239  0.41109630  0.69929630    -0.97700
O629        O  0.21129797  0.44566342  0.78879212    -0.55000
O630        O  0.14196283  0.41469236  0.80077727    -0.74300
C631        C  0.12078506  0.41106828  0.82787934     0.98000
O632        O  0.08718346  0.48475852  0.83902418    -0.63100
O633        O  0.23876000  0.57934124  0.83723383    -0.57900
O634        O  0.14007417  0.49368625  0.87205530    -0.94600
O635        O  0.19209272  0.52282600  0.87455226    -0.93000
O636        O  0.19108840  0.60916432  0.76888668    -0.93400
O637        O  0.13078780  0.57235994  0.77816531    -0.92200
C638        C  0.16529305  0.50874748  0.89252514     1.16900
H639        H  0.22754770  0.58156433  0.74597296     0.32800
H640        H  0.10377716  0.50873774  0.73271000     0.43700
H641        H  0.17338745  0.46947236  0.83196323     0.37200
H642        H  0.17960224  0.47577582  0.65295402     0.33700
H643        H  0.13720165  0.59170682  0.68315858     0.25500
H644        H  0.10616150  0.42422808  0.65152876     0.31400
H645        H  0.12643377  0.39796522  0.71632432     0.37300
H646        H  0.18712577  0.62357637  0.75025054     0.31800
H647        H  0.25673515  0.59327509  0.81844094     0.30600
H648        H  0.23221388  0.50344899  0.87034300     0.32300
H649        H  0.20084191  0.42339724  0.79567309     0.31300
H650        H  0.12006100  0.55428995  0.79892686     0.35300
H651        H  0.07755912  0.49273784  0.81735027     0.28000
H652        H  0.25484231  0.56798434  0.60213943     0.32300
H653        H  0.20803788  0.44704430  0.67459734     0.35100
H654        H  0.22461466  0.58761583  0.83331572     0.27700
H655        H  0.07099351  0.46363101  0.84712941     0.40600
H656        H  0.08975950  0.48999024  0.60931008     0.30600
H657        H  0.12411289  0.55973067  0.66413710     0.38300
H658        H  0.21164962  0.45421685  0.81716923     0.30100
H659        H  0.09749458  0.44012885  0.61263015     0.30200
H660        H  0.25627202  0.53793568  0.61374487     0.30400
Zr661      Zr  0.47628820  0.68339299  0.15646824     2.17500
O662        O  0.44438818  0.69374553  0.10472220    -0.51900
O663        O  0.42153385  0.64424500  0.16946556    -0.75100
O664        O  0.48659927  0.67932664  0.07913353    -0.81900
O665        O  0.46084746  0.72094807  0.24363271    -0.83600
O666        O  0.52199357  0.66403222  0.07874375    -0.79300
O667        O  0.46892701  0.72587030  0.17022764    -0.90900
O668        O  0.41833148  0.60412642  0.21118183    -0.76900
O669        O  0.48167917  0.63924138  0.16453529    -0.86400
O670        O  0.46223092  0.66393251  0.23080294    -0.86100
O671        O  0.53038079  0.70231101  0.14302744    -0.72800
O672        O  0.51119369  0.72397154  0.20106636    -0.84900
Zr673      Zr  0.55380786  0.67515984  0.27372898     2.26400
Zr674      Zr  0.53500560  0.65733159  0.15330377     2.06300
Zr675      Zr  0.49567698  0.70381744  0.27467526     2.10000
Zr676      Zr  0.46831075  0.62004286  0.23894149     1.78800
O677        O  0.52028567  0.75552646  0.29849627    -0.93700
O678        O  0.45356313  0.57377185  0.20160429    -0.41600
O679        O  0.50083645  0.65918291  0.28521203    -0.78200
O680        O  0.52074980  0.63550038  0.22695972    -0.96900
O681        O  0.56917262  0.69577394  0.20031427    -0.90200
O682        O  0.54880706  0.71986485  0.26530883    -0.93000
C683        C  0.40608167  0.61810290  0.19080806     1.00700
C684        C  0.45746173  0.72988749  0.20452816     1.13700
C685        C  0.50416536  0.67202365  0.05918464     1.04400
O686        O  0.51483943  0.60253617  0.15453545    -0.95200
O687        O  0.58645536  0.67301543  0.17519808    -0.90900
O688        O  0.58018644  0.65037034  0.24148962    -0.84100
C689        C  0.58991857  0.65455561  0.20154120     1.11100
O690        O  0.56938101  0.77704651  0.13323226    -0.97200
Zr691      Zr  0.56476071  0.73998624  0.19199093     1.88900
O692        O  0.60285795  0.71890042  0.28638195    -0.73800
O693        O  0.56275693  0.64693165  0.09825497    -0.53100
O694        O  0.60518024  0.75005055  0.13957183    -0.97700
O695        O  0.57233483  0.78760256  0.21820314    -0.55000
O696        O  0.61133201  0.75781703  0.23678997    -0.74300
C697        C  0.61932010  0.74607230  0.26967522     0.98000
O698        O  0.56777518  0.64861226  0.33105739    -0.63100
O699        O  0.45327026  0.68846461  0.32621634    -0.57900
O700        O  0.53660244  0.67316420  0.34951472    -0.94600
O701        O  0.50517568  0.69356805  0.34988534    -0.93000
O702        O  0.43403613  0.60377530  0.30248404    -0.93400
O703        O  0.47366508  0.58322666  0.28823037    -0.92200
C704        C  0.51980394  0.68154534  0.36935556     1.16900
H705        H  0.44205246  0.65955541  0.23956672     0.32800
H706        H  0.52336117  0.61798655  0.23221909     0.43700
H707        H  0.56055185  0.73433413  0.28671403     0.37200
H708        H  0.53677112  0.71211361  0.11399089     0.33700
H709        H  0.43310016  0.55883445  0.21394846     0.25500
H710        H  0.54719647  0.63137033  0.07980439     0.31400
H711        H  0.61775922  0.74228450  0.15478497     0.37300
H712        H  0.43877695  0.62288960  0.31583081     0.31800
H713        H  0.45130587  0.70681672  0.32863447     0.30600
H714        H  0.51082565  0.76568541  0.28073236     0.32300
H715        H  0.57635614  0.78651443  0.24996323     0.31300
H716        H  0.49126301  0.59574783  0.30688792     0.35300
H717        H  0.55686716  0.62703220  0.32372923     0.28000
H718        H  0.43504903  0.67646126  0.08551486     0.32300
H719        H  0.59067445  0.79407366  0.13459388     0.35100
H720        H  0.43466683  0.67424165  0.31064554     0.27700
H721        H  0.58971842  0.65558927  0.32585418     0.40600
H722        H  0.50114457  0.59592133  0.12895544     0.30600
H723        H  0.44954177  0.57833831  0.17094329     0.38300
H724        H  0.55183242  0.78587456  0.21687794     0.30100
H725        H  0.57327369  0.66564389  0.07861044     0.30200
H726        H  0.45867929  0.71151593  0.08550022     0.30400
Zr727      Zr  0.47784524  0.68032288  0.65541276     2.17500
O728        O  0.46976626  0.71307916  0.60097738    -0.51900
O729        O  0.42296372  0.63982606  0.66282155    -0.75100
O730        O  0.48356644  0.67034825  0.57929205    -0.81900
O731        O  0.46303969  0.72084060  0.74252803    -0.83600
O732        O  0.52462998  0.66333280  0.57982980    -0.79300
O733        O  0.45146959  0.70713831  0.67214064    -0.90900
O734        O  0.41880700  0.60303006  0.71378814    -0.76900
O735        O  0.48357913  0.63646185  0.66463253    -0.86400
O736        O  0.46328460  0.66153154  0.72943290    -0.86100
O737        O  0.53221457  0.70028615  0.64419871    -0.72800
O738        O  0.51236305  0.72102315  0.70036749    -0.84900
Zr739      Zr  0.55475133  0.67306311  0.77569392     2.26400
Zr740      Zr  0.53725786  0.65571205  0.65449763     2.06300
Zr741      Zr  0.49604301  0.70139697  0.77372207     2.10000
Zr742      Zr  0.46941683  0.61778316  0.73926723     1.78800
O743        O  0.51889917  0.75339255  0.79586567    -0.93700
O744        O  0.45291034  0.57056197  0.70361148    -0.41600
O745        O  0.50153264  0.65694196  0.78591012    -0.78200
O746        O  0.52215160  0.63370279  0.72800607    -0.96900
O747        O  0.57087933  0.69382759  0.70245419    -0.90200
O748        O  0.54932377  0.71757739  0.76621498    -0.93000
C749        C  0.40719303  0.61509069  0.68742459     1.00700
C750        C  0.44972202  0.72002798  0.70569067     1.13700
C751        C  0.50417290  0.66722144  0.55959099     1.04400
O752        O  0.51728299  0.60109223  0.65313358    -0.95200
O753        O  0.58836439  0.67100527  0.67777418    -0.90900
O754        O  0.58142972  0.64817398  0.74397891    -0.84100
C755        C  0.59157163  0.65245805  0.70422795     1.11100
O756        O  0.56964295  0.77415609  0.63417944    -0.97200
Zr757      Zr  0.56631098  0.73787520  0.69335119     1.88900
O758        O  0.60348103  0.71705470  0.79043417    -0.73800
O759        O  0.56813431  0.64912592  0.60003291    -0.53100
O760        O  0.60680521  0.74719039  0.64155802    -0.97700
O761        O  0.57595263  0.78642625  0.71868789    -0.55000
O762        O  0.61221993  0.75560577  0.73996076    -0.74300
C763        C  0.61985676  0.74429558  0.77383809     0.98000
O764        O  0.56822427  0.64539185  0.83189554    -0.63100
O765        O  0.45199062  0.68394637  0.82281595    -0.57900
O766        O  0.53726266  0.67189260  0.85131059    -0.94600
O767        O  0.50726737  0.69396745  0.84917076    -0.93000
O768        O  0.43833297  0.60417876  0.80588617    -0.93400
O769        O  0.47458008  0.57983706  0.78613279    -0.92200
C770        C  0.52117078  0.68163939  0.86998152     1.16900
H771        H  0.44285649  0.65715856  0.73646607     0.32800
H772        H  0.52480478  0.61616328  0.73307616     0.43700
H773        H  0.56064072  0.73208399  0.78774419     0.37200
H774        H  0.53827689  0.70984145  0.61496661     0.33700
H775        H  0.43280612  0.55601132  0.71738390     0.25500
H776        H  0.55376936  0.63487836  0.57903096     0.31400
H777        H  0.59940494  0.72770230  0.62758724     0.37300
H778        H  0.43089783  0.61900122  0.80551732     0.31800
H779        H  0.45133347  0.70257627  0.82886577     0.30600
H780        H  0.50971107  0.75146892  0.82511738     0.32300
H781        H  0.58063127  0.78568589  0.75025880     0.31300
H782        H  0.48711728  0.59115476  0.81097220     0.35300
H783        H  0.55909931  0.62440242  0.82226417     0.28000
H784        H  0.45329558  0.69930881  0.58175428     0.32300
H785        H  0.59124599  0.79070727  0.63344150     0.35100
H786        H  0.43378097  0.67237161  0.80466472     0.27700
H787        H  0.59062750  0.65395558  0.82873460     0.40600
H788        H  0.50516823  0.59536110  0.62593887     0.30600
H789        H  0.44800482  0.57457839  0.67318808     0.38300
H790        H  0.55569642  0.78526053  0.71826681     0.30100
H791        H  0.57932689  0.66898649  0.58306276     0.30200
H792        H  0.48850669  0.72330250  0.58228418     0.30400
Zr793      Zr  0.22976509  0.02032153  0.87712090     2.17500
O794        O  0.26959682  0.04295981  0.82004231    -0.51900
O795        O  0.23391569  0.97517495  0.86373490    -0.75100
O796        O  0.28292463  0.04870614  0.90621148    -0.81900
O797        O  0.16198597  0.00155009  0.79819373    -0.83600
O798        O  0.28003703  0.05621148  0.97830370    -0.79300
O799        O  0.21396819  0.02372815  0.80079355    -0.90900
O800        O  0.20315285  0.93601315  0.91172985    -0.76900
O801        O  0.22573519  0.99965058  0.95064091    -0.86400
O802        O  0.18073117  0.97496441  0.88374025    -0.86100
O803        O  0.23384498  0.05905234  0.92343418    -0.72800
O804        O  0.19131758  0.03488685  0.86359705    -0.84900
Zr805      Zr  0.14306188  0.00874245  0.99102861     2.26400
Zr806      Zr  0.22767038  0.03702740  0.99695055     2.06300
Zr807      Zr  0.14231071  0.98930171  0.87264644     2.10000
Zr808      Zr  0.17717363  0.95462480  0.95704413     1.78800
O809        O  0.11156023  0.00209886  0.82227232    -0.93700
O810        O  0.20752341  0.94179036  0.00814003    -0.41600
O811        O  0.13847602  0.96905795  0.94642419    -0.78200
O812        O  0.17956179  0.99149681  0.00492932    -0.96900
O813        O  0.19141170  0.05402621  0.98380454    -0.90200
O814        O  0.14659691  0.02784100  0.91657802    -0.93000
C815        C  0.22239202  0.94743343  0.87944692     1.00700
C816        C  0.18858168  0.01452668  0.77985555     1.13700
C817        C  0.29505366  0.05865803  0.94369773     1.04400
O818        O  0.25074876  0.01639983  0.04966156    -0.95200
O819        O  0.20964178  0.03214054  0.07098574    -0.90900
O820        O  0.15840616  0.01357468  0.06877491    -0.84100
C821        C  0.18360115  0.02222517  0.08981310     1.11100
O822        O  0.23971353  0.11608751  0.87302826    -0.97200
Zr823      Zr  0.19517149  0.07301864  0.90927212     1.88900
O824        O  0.12334261  0.04478993  0.97825501    -0.73800
O825        O  0.25559887  0.08841050  0.02201625    -0.53100
O826        O  0.21685560  0.11999511  0.94714578    -0.97700
O827        O  0.18007409  0.08406610  0.83697120    -0.55000
O828        O  0.15475925  0.08282359  0.92922537    -0.74300
C829        C  0.13028298  0.06876260  0.95281628     0.98000
O830        O  0.10534365  0.99501462  0.04965735    -0.63100
O831        O  0.11842932  0.93762217  0.84903032    -0.57900
O832        O  0.09389185  0.96612803  0.97493915    -0.94600
O833        O  0.08982826  0.96920545  0.90104167    -0.93000
O834        O  0.13539821  0.90770126  0.93114285    -0.93400
O835        O  0.14658035  0.91870160  0.01691270    -0.92200
C836        C  0.07806173  0.96053442  0.94000013     1.16900
H837        H  0.17799913  0.96070813  0.86217838     0.32800
H838        H  0.17690731  0.98196608  0.03452978     0.43700
H839        H  0.12960412  0.03039803  0.90667222     0.37200
H840        H  0.25363360  0.07724336  0.91970108     0.33700
H841        H  0.20174149  0.92060229  0.00252985     0.25500
H842        H  0.24044029  0.09069503  0.03923139     0.31400
H843        H  0.23168004  0.11881829  0.96788319     0.37300
H844        H  0.14450080  0.89463278  0.92672289     0.31800
H845        H  0.10294038  0.92523345  0.87219614     0.30600
H846        H  0.09495617  0.98231665  0.81305401     0.32300
H847        H  0.18825971  0.10633702  0.83470080     0.31300
H848        H  0.13299596  0.92629967  0.02643265     0.35300
H849        H  0.08788830  0.99615377  0.03594199     0.28000
H850        H  0.28352656  0.03467938  0.82673805     0.32300
H851        H  0.24740407  0.10687737  0.85262739     0.35100
H852        H  0.10628477  0.93772313  0.82315684     0.27700
H853        H  0.09741751  0.97308803  0.05750069     0.40600
H854        H  0.23444040  0.99519123  0.05691989     0.30600
H855        H  0.22885433  0.95407516  0.99691814     0.38300
H856        H  0.19252850  0.08070742  0.81563464     0.30100
H857        H  0.26988391  0.08763789  0.04420619     0.30200
H858        H  0.28173039  0.06487881  0.82526833     0.30400
Zr859      Zr  0.22932808  0.01970356  0.37742779     2.17500
O860        O  0.27056266  0.04429731  0.32264285    -0.51900
O861        O  0.23395484  0.97516614  0.36330060    -0.75100
O862        O  0.28113100  0.04894082  0.40994106    -0.81900
O863        O  0.16121751  0.99820940  0.29978444    -0.83600
O864        O  0.26514420  0.02513413  0.47477680    -0.79300
O865        O  0.21323963  0.02156187  0.30127729    -0.90900
O866        O  0.20278444  0.93590588  0.41095308    -0.76900
O867        O  0.22520672  0.99930521  0.45139450    -0.86400
O868        O  0.18041438  0.97417126  0.38537175    -0.86100
O869        O  0.23361389  0.05938126  0.42211065    -0.72800
O870        O  0.19032930  0.03354796  0.36384534    -0.84900
Zr871      Zr  0.14278866  0.00907699  0.49179666     2.26400
Zr872      Zr  0.22750033  0.03771873  0.49606070     2.06300
Zr873      Zr  0.14152281  0.98768810  0.37423465     2.10000
Zr874      Zr  0.17714299  0.95423092  0.45866719     1.78800
O875        O  0.11134199  0.00319489  0.32711826    -0.93700
O876        O  0.20817428  0.94304128  0.51071340    -0.41600
O877        O  0.13818732  0.96851158  0.44872907    -0.78200
O878        O  0.17932910  0.99178745  0.50582700    -0.96900
O879        O  0.19089446  0.05434262  0.48329805    -0.90200
O880        O  0.14571282  0.02692018  0.41682946    -0.93000
C881        C  0.22191767  0.94726835  0.37831721     1.00700
C882        C  0.18763778  0.01130483  0.28079012     1.13700
C883        C  0.28693047  0.04464274  0.45013389     1.04400
O884        O  0.26013266  0.04360549  0.55895658    -0.95200
O885        O  0.20931093  0.03172060  0.57027549    -0.90900
O886        O  0.15892540  0.01746393  0.56890904    -0.84100
C887        C  0.18402385  0.02454867  0.58942048     1.11100
O888        O  0.23555271  0.11567298  0.36747405    -0.97200
Zr889      Zr  0.19421601  0.07230878  0.40838404     1.88900
O890        O  0.12392310  0.04585233  0.47943983    -0.73800
O891        O  0.26205318  0.09245291  0.49578614    -0.53100
O892        O  0.21924658  0.11769650  0.45001255    -0.97700
O893        O  0.17841812  0.08580423  0.33839503    -0.55000
O894        O  0.15411979  0.08227217  0.42770704    -0.74300
C895        C  0.13049194  0.06927762  0.45296458     0.98000
O896        O  0.10777460  0.99127590  0.55499878    -0.63100
O897        O  0.11914072  0.93798648  0.34382124    -0.57900
O898        O  0.09089237  0.97226159  0.47524325    -0.94600
O899        O  0.08861761  0.96120273  0.40383448    -0.93000
O900        O  0.13625400  0.90685161  0.43250482    -0.93400
O901        O  0.14775369  0.91690158  0.51795273    -0.92200
C902        C  0.07617709  0.95887715  0.44153662     1.16900
H903        H  0.17750659  0.95981126  0.36396144     0.32800
H904        H  0.17678146  0.98279161  0.53534558     0.43700
H905        H  0.12857408  0.02933517  0.40743787     0.37200
H906        H  0.25328472  0.07752834  0.41734702     0.33700
H907        H  0.22721177  0.94856210  0.49430147     0.25500
H908        H  0.25880408  0.09809770  0.52484247     0.31400
H909        H  0.20607964  0.11303114  0.47633986     0.37300
H910        H  0.11707780  0.90632479  0.44098411     0.31800
H911        H  0.10606044  0.92342558  0.36772412     0.30600
H912        H  0.09643968  0.98446852  0.31315595     0.32300
H913        H  0.17476636  0.10273999  0.34434691     0.31300
H914        H  0.13333541  0.92334541  0.52796357     0.35300
H915        H  0.09098661  0.99543675  0.54663843     0.28000
H916        H  0.28467448  0.03630667  0.32981678     0.32300
H917        H  0.24198701  0.10660380  0.34506616     0.35100
H918        H  0.10453283  0.93805842  0.32164221     0.27700
H919        H  0.09821916  0.96881563  0.55732660     0.40600
H920        H  0.25625893  0.02277023  0.56739810     0.30600
H921        H  0.21458162  0.95870631  0.53242831     0.38300
H922        H  0.15775900  0.06843729  0.33363411     0.30100
H923        H  0.28284780  0.09489483  0.49709074     0.30200
H924        H  0.28209229  0.06603873  0.32910395     0.30400
Zr925      Zr  0.01463981  0.23090895  0.99859415     2.17500
O926        O  0.04132246  0.26894778  0.05211059    -0.51900
O927        O  0.97255434  0.24073221  0.01118792    -0.75100
O928        O  0.04611880  0.28318682  0.96182641    -0.81900
O929        O  0.98768812  0.16225364  0.08371444    -0.83600
O930        O  0.05827074  0.27918471  0.89191486    -0.79300
O931        O  0.01371859  0.21403140  0.07718492    -0.90900
O932        O  0.93319774  0.21255995  0.96660804    -0.76900
O933        O  0.99721154  0.22881326  0.92490204    -0.86400
O934        O  0.96625572  0.18479639  0.99628936    -0.86100
O935        O  0.05325679  0.23136571  0.95244210    -0.72800
O936        O  0.02336194  0.18902040  0.01662524    -0.84900
Zr937      Zr  0.99920889  0.14272585  0.89343297     2.26400
Zr938      Zr  0.03434554  0.22689023  0.87869554     2.06300
Zr939      Zr  0.97513279  0.14301290  0.01106084     2.10000
Zr940      Zr  0.94914831  0.18351019  0.92299647     1.78800
O941        O  0.97761305  0.10871529  0.06866270    -0.93700
O942        O  0.94205062  0.21753756  0.86999498    -0.41600
O943        O  0.95860261  0.14142578  0.93693919    -0.78200
O944        O  0.98598859  0.18189813  0.87555590    -0.96900
O945        O  0.04702677  0.18799118  0.89717093    -0.90200
O946        O  0.01440329  0.14390432  0.96809860    -0.93000
C947        C  0.94536739  0.23158775  0.99672980     1.00700
C948        C  0.00199358  0.18829803  0.10024880     1.13700
C949        C  0.05925756  0.29463886  0.92373878     1.04400
O950        O  0.02137042  0.25676938  0.82593356    -0.95200
O951        O  0.02887372  0.20927220  0.80520077    -0.90900
O952        O  0.00595953  0.15784912  0.81398488    -0.84100
C953        C  0.01676954  0.18290072  0.78975510     1.11100
O954        O  0.10290674  0.23006051  0.01232446    -0.97200
Zr955      Zr  0.06209957  0.18992655  0.97218450     1.88900
O956        O  0.03422333  0.12151228  0.90654324    -0.73800
O957        O  0.08633767  0.24723879  0.85080989    -0.53100
O958        O  0.11050157  0.21331129  0.93152084    -0.97700
O959        O  0.07055737  0.16916932  0.04206032    -0.55000
O960        O  0.06945190  0.14821135  0.95738897    -0.74300
C961        C  0.05647948  0.12602236  0.93261157     0.98000
O962        O  0.98589823  0.10829713  0.83427315    -0.63100
O963        O  0.92196409  0.12527697  0.03093741    -0.57900
O964        O  0.95727760  0.09321504  0.91491318    -0.94600
O965        O  0.95184571  0.09040317  0.98871808    -0.93000
O966        O  0.89853597  0.14507736  0.95035195    -0.93400
O967        O  0.91454737  0.15779613  0.86372115    -0.92200
C968        C  0.94640191  0.07810141  0.95155204     1.16900
H969        H  0.95181177  0.18351408  0.01787947     0.32800
H970        H  0.97750281  0.18014122  0.84654745     0.43700
H971        H  0.01520738  0.12597058  0.97879874     0.37200
H972        H  0.07243950  0.25006113  0.95454152     0.33700
H973        H  0.92084996  0.21321587  0.87531008     0.25500
H974        H  0.09081721  0.26623265  0.83349468     0.31400
H975        H  0.10744926  0.19918289  0.90854453     0.37300
H976        H  0.88585106  0.15502830  0.94671786     0.31800
H977        H  0.91026036  0.10521105  0.01825897     0.30600
H978        H  0.95678489  0.09762930  0.08193465     0.32300
H979        H  0.09249649  0.17500256  0.04169158     0.31300
H980        H  0.91870060  0.14123763  0.85740443     0.35300
H981        H  0.99192061  0.09309324  0.84457699     0.28000
H982        H  0.03267079  0.28277571  0.04879733     0.32300
H983        H  0.09232656  0.23781455  0.03020639     0.35100
H984        H  0.92073790  0.12053342  0.06305165     0.27700
H985        H  0.96324577  0.09674501  0.83349006     0.40600
H986        H  0.99897546  0.24423248  0.82224352     0.30600
H987        H  0.95509310  0.23815011  0.88043385     0.38300
H988        H  0.06864458  0.18121238  0.06482151     0.30100
H989        H  0.09938281  0.25414257  0.87698878     0.30200
H990        H  0.06273701  0.28126696  0.04126095     0.30400
Zr991      Zr  0.01544791  0.22980484  0.49921570     2.17500
O992        O  0.04141814  0.26713880  0.55385487    -0.51900
O993        O  0.97447332  0.24084691  0.51200156    -0.75100
O994        O  0.04846869  0.28254483  0.46577334    -0.81900
O995        O  0.98703984  0.16005255  0.58300414    -0.83600
O996        O  0.05878561  0.27975084  0.39447103    -0.79300
O997        O  0.01510127  0.21180297  0.57644049    -0.90900
O998        O  0.93599433  0.21516749  0.46479547    -0.76900
O999        O  0.99843292  0.22929639  0.42567579    -0.86400
O1000       O  0.96690793  0.18388796  0.49591109    -0.86100
O1001       O  0.05439851  0.23122873  0.45313808    -0.72800
O1002       O  0.02346731  0.18738004  0.51567586    -0.84900
Zr1003     Zr  0.99938097  0.14305768  0.39118265     2.26400
Zr1004     Zr  0.03583474  0.22778885  0.37957920     2.06300
Zr1005     Zr  0.97527939  0.14144123  0.50948731     2.10000
Zr1006     Zr  0.95024816  0.18418232  0.42276272     1.78800
O1007       O  0.98386458  0.10758204  0.56070601    -0.93700
O1008       O  0.94456771  0.21763430  0.36690789    -0.41600
O1009       O  0.95896151  0.14151729  0.43534612    -0.78200
O1010       O  0.98713470  0.18305829  0.37499901    -0.96900
O1011       O  0.04751542  0.18803987  0.39595597    -0.90200
O1012       O  0.01476634  0.14328260  0.46561614    -0.93000
C1013       C  0.94810407  0.23338711  0.49586114     1.00700
C1014       C  0.00287598  0.18610786  0.59938708     1.13700
C1015       C  0.06094763  0.29461318  0.42763751     1.04400
O1016       O  0.02668934  0.25849689  0.32310804    -0.95200
O1017       O  0.03111002  0.21133011  0.30603401    -0.90900
O1018       O  0.00839481  0.15986136  0.31248995    -0.84100
C1019       C  0.01972447  0.18544826  0.28948702     1.11100
O1020       O  0.10116006  0.22700181  0.51665188    -0.97200
Zr1021     Zr  0.06248202  0.18930234  0.47088148     1.88900
O1022       O  0.03523757  0.12270018  0.40090091    -0.73800
O1023       O  0.08914572  0.24876516  0.35724571    -0.53100
O1024       O  0.11103109  0.21659075  0.43052521    -0.97700
O1025       O  0.07226421  0.16642455  0.53761602    -0.55000
O1026       O  0.07156901  0.15010136  0.45017412    -0.74300
C1027       C  0.05850811  0.12808423  0.42526152     0.98000
O1028       O  0.98071991  0.10972724  0.33022032    -0.63100
O1029       O  0.92317262  0.12166875  0.53687793    -0.57900
O1030       O  0.95973615  0.09190354  0.41251667    -0.94600
O1031       O  0.94974771  0.08886550  0.48512965    -0.93000
O1032       O  0.90003929  0.14740221  0.45342616    -0.93400
O1033       O  0.91278841  0.15700679  0.36718852    -0.92200
C1034       C  0.94662381  0.07657027  0.44823845     1.16900
H1035       H  0.95231582  0.18260077  0.51729805     0.32800
H1036       H  0.97896587  0.18184521  0.34588111     0.43700
H1037       H  0.01606942  0.12539799  0.47492155     0.37200
H1038       H  0.07364549  0.24969138  0.45600160     0.33700
H1039       H  0.92455364  0.21589951  0.37365489     0.25500
H1040       H  0.09241467  0.26421997  0.33322140     0.31400
H1041       H  0.10937668  0.20324613  0.40710526     0.37300
H1042       H  0.88781061  0.15785563  0.45021044     0.31800
H1043       H  0.91068509  0.10278253  0.52157944     0.30600
H1044       H  0.96424893  0.09545606  0.57712269     0.32300
H1045       H  0.05857801  0.14424040  0.53600815     0.31300
H1046       H  0.91680353  0.14047065  0.36020944     0.35300
H1047       H  0.98347164  0.09207667  0.33903518     0.28000
H1048       H  0.03685276  0.28378983  0.54642176     0.32300
H1049       H  0.11829307  0.22259263  0.51757369     0.35100
H1050       H  0.92353943  0.11455086  0.56776035     0.27700
H1051       H  0.95827151  0.10149617  0.32961951     0.40600
H1052       H  0.00986804  0.26083489  0.33509334     0.30600
H1053       H  0.95977897  0.23849630  0.37441889     0.38300
H1054       H  0.06336059  0.17192703  0.56167723     0.30100
H1055       H  0.10117930  0.26077306  0.38190897     0.30200
H1056       H  0.06356372  0.27604088  0.54744059     0.30400
Zr1057     Zr  0.87411364  0.88167448  0.98645629     2.17500
O1058       O  0.90164106  0.92302419  0.03502017    -0.51900
O1059       O  0.92963555  0.89885820  0.98302700    -0.75100
O1060       O  0.86239057  0.86477681  0.06448683    -0.81900
O1061       O  0.88135548  0.93678030  0.89236840    -0.83600
O1062       O  0.83298194  0.81344360  0.07117423    -0.79300
O1063       O  0.87950881  0.93084977  0.96643804    -0.90900
O1064       O  0.93806719  0.86760429  0.94249283    -0.76900
O1065       O  0.87261015  0.83420889  0.98634509    -0.86400
O1066       O  0.89177164  0.88035249  0.91525568    -0.86100
O1067       O  0.82045847  0.84486526  0.99831817    -0.72800
O1068       O  0.83853675  0.88599798  0.93608196    -0.84900
Zr1069     Zr  0.80327913  0.79757299  0.87483067     2.26400
Zr1070     Zr  0.81963759  0.79738708  0.99739686     2.06300
Zr1071     Zr  0.85715078  0.88507214  0.86549504     2.10000
Zr1072     Zr  0.88925261  0.83204228  0.91473509     1.78800
O1073       O  0.83078308  0.90929979  0.82812902    -0.93700
O1074       O  0.90323000  0.79994446  0.96130381    -0.41600
O1075       O  0.85549743  0.83686310  0.86322245    -0.78200
O1076       O  0.83733145  0.79310808  0.92719582    -0.96900
O1077       O  0.78450507  0.79936088  0.94483642    -0.90200
O1078       O  0.80492106  0.84562532  0.87427535    -0.93000
C1079       C  0.94733023  0.89075259  0.96521037     1.00700
C1080       C  0.88522485  0.94745782  0.93065548     1.13700
C1081       C  0.84750237  0.83944126  0.08752445     1.04400
O1082       O  0.84168764  0.76817975  0.03240074    -0.95200
O1083       O  0.78852940  0.74567720  0.97998642    -0.90900
O1084       O  0.77576606  0.74458541  0.90777883    -0.84100
C1085       C  0.77468824  0.73167322  0.94620723     1.11100
O1086       O  0.77725192  0.87688789  0.99524304    -0.97200
Zr1087     Zr  0.78564859  0.84670181  0.94397552     1.88900
O1088       O  0.75343620  0.79063750  0.85368775    -0.73800
O1089       O  0.77319577  0.77350615  0.04275740    -0.53100
O1090       O  0.74482896  0.81453945  0.99677860    -0.97700
O1091       O  0.77529855  0.88494790  0.90773647    -0.55000
O1092       O  0.74180815  0.81907456  0.89555791    -0.74300
C1093       C  0.73577044  0.80072234  0.86476247     0.98000
O1094       O  0.79743611  0.75723703  0.82930451    -0.63100
O1095       O  0.90314920  0.91528084  0.82016852    -0.57900
O1096       O  0.81865784  0.81553986  0.79800051    -0.94600
O1097       O  0.84914241  0.86696892  0.79247828    -0.93000
O1098       O  0.92267824  0.85204845  0.85005870    -0.93400
O1099       O  0.89328824  0.79553078  0.87125531    -0.92200
C1100       C  0.83478536  0.84105787  0.77569591     1.16900
H1101       H  0.91185603  0.89716436  0.90780265     0.32800
H1102       H  0.83632990  0.77363549  0.92595759     0.43700
H1103       H  0.79326512  0.84811535  0.85040420     0.37200
H1104       H  0.81313384  0.84688815  0.02621538     0.33700
H1105       H  0.92475739  0.80684259  0.95313462     0.25500
H1106       H  0.77651636  0.76065353  0.06557229     0.31400
H1107       H  0.72837227  0.79900007  0.97935592     0.37300
H1108       H  0.92695261  0.87330071  0.84509548     0.31800
H1109       H  0.89897861  0.92977505  0.80216748     0.30600
H1110       H  0.84671629  0.92622102  0.80934134     0.32300
H1111       H  0.77416072  0.88134567  0.87608725     0.31300
H1112       H  0.87484080  0.78733590  0.85273452     0.35300
H1113       H  0.78482780  0.75755325  0.80413646     0.28000
H1114       H  0.91081413  0.91552353  0.05813938     0.32300
H1115       H  0.75557794  0.87161766  0.99168161     0.35100
H1116       H  0.91930289  0.92810028  0.84056320     0.27700
H1117       H  0.81803988  0.76430564  0.81661675     0.40600
H1118       H  0.82801640  0.75685311  0.05791852     0.30600
H1119       H  0.90439763  0.80663126  0.99139426     0.38300
H1120       H  0.79449688  0.90448452  0.91040465     0.30100
H1121       H  0.77373297  0.79013552  0.05876381     0.30200
H1122       H  0.88579395  0.92535754  0.05021527     0.30400
Zr1123     Zr  0.87184165  0.87764380  0.48630063     2.17500
O1124       O  0.89376902  0.91820992  0.53729680    -0.51900
O1125       O  0.92700752  0.89312472  0.48415355    -0.75100
O1126       O  0.86116152  0.86046539  0.56440009    -0.81900
O1127       O  0.87668358  0.93274056  0.39176482    -0.83600
O1128       O  0.82942573  0.80957881  0.57166962    -0.79300
O1129       O  0.88423583  0.92921604  0.46467182    -0.90900
O1130       O  0.93409545  0.86211070  0.44171772    -0.76900
O1131       O  0.86952099  0.82964395  0.48602055    -0.86400
O1132       O  0.88830875  0.87571380  0.41453723    -0.86100
O1133       O  0.81803181  0.84179526  0.49883424    -0.72800
O1134       O  0.83614273  0.88236485  0.43649229    -0.84900
Zr1135     Zr  0.79923644  0.79385506  0.37548343     2.26400
Zr1136     Zr  0.81616164  0.79383057  0.49791990     2.06300
Zr1137     Zr  0.85377455  0.88103155  0.36525039     2.10000
Zr1138     Zr  0.88511443  0.82712928  0.41374890     1.78800
O1139       O  0.82895134  0.90570494  0.32470918    -0.93700
O1140       O  0.89705214  0.79163429  0.45528667    -0.41600
O1141       O  0.85152382  0.83276334  0.36304893    -0.78200
O1142       O  0.83317345  0.78863758  0.42760859    -0.96900
O1143       O  0.78090345  0.79601844  0.44573915    -0.90200
O1144       O  0.80139230  0.84223899  0.37498094    -0.93000
C1145       C  0.94436219  0.88512451  0.46503433     1.00700
C1146       C  0.88551410  0.94471551  0.42908841     1.13700
C1147       C  0.84553198  0.83541391  0.58777734     1.04400
O1148       O  0.83533800  0.76363889  0.53790709    -0.95200
O1149       O  0.78532013  0.74205947  0.48133057    -0.90900
O1150       O  0.77244448  0.74102671  0.40929265    -0.84100
C1151       C  0.77140232  0.72807958  0.44762485     1.11100
O1152       O  0.77536265  0.87484858  0.49578713    -0.97200
Zr1153     Zr  0.78302277  0.84382440  0.44514760     1.88900
O1154       O  0.75019669  0.78850369  0.35339673    -0.73800
O1155       O  0.76892746  0.77165151  0.54130389    -0.53100
O1156       O  0.74252710  0.81197226  0.49855298    -0.97700
O1157       O  0.77328970  0.88285978  0.41027924    -0.55000
O1158       O  0.73877505  0.81593749  0.39769305    -0.74300
C1159       C  0.73255733  0.79817746  0.36608911     0.98000
O1160       O  0.78961476  0.75531634  0.32409494    -0.63100
O1161       O  0.90131352  0.91029193  0.32284136    -0.57900
O1162       O  0.81638849  0.80967174  0.29891697    -0.94600
O1163       O  0.84471214  0.86137719  0.29268902    -0.93000
O1164       O  0.92537061  0.84833349  0.35761607    -0.93400
O1165       O  0.88281108  0.79313772  0.35903064    -0.92200
C1166       C  0.83182183  0.83517257  0.27635130     1.16900
H1167       H  0.90859005  0.89227087  0.40718825     0.32800
H1168       H  0.83194069  0.76904537  0.42640891     0.43700
H1169       H  0.78973339  0.84504513  0.35146392     0.37200
H1170       H  0.81119816  0.84415914  0.52688469     0.33700
H1171       H  0.90634494  0.78477128  0.43360300     0.25500
H1172       H  0.77075562  0.75755143  0.56359282     0.31400
H1173       H  0.72372813  0.81092258  0.48603944     0.37300
H1174       H  0.91763560  0.85695405  0.33391710     0.31800
H1175       H  0.89574992  0.91901818  0.29664804     0.30600
H1176       H  0.84397095  0.91896459  0.30150447     0.32300
H1177       H  0.76270819  0.87454993  0.38261911     0.31300
H1178       H  0.86241173  0.78562164  0.34563156     0.35300
H1179       H  0.79974947  0.74405795  0.33654326     0.28000
H1180       H  0.90703997  0.91370584  0.55716635     0.32300
H1181       H  0.75349256  0.86911764  0.49352732     0.35100
H1182       H  0.91445617  0.92801407  0.34004832     0.27700
H1183       H  0.76738473  0.74061327  0.32618230     0.40600
H1184       H  0.85259614  0.76613947  0.51968590     0.30600
H1185       H  0.91422995  0.80441173  0.47437067     0.38300
H1186       H  0.79374768  0.89961582  0.40067691     0.30100
H1187       H  0.77047719  0.78837734  0.55818544     0.30200
H1188       H  0.87666701  0.91565225  0.55601024     0.30400
C1189       C  0.83814500  0.81511916  0.71145492    -0.20900
C1190       C  0.83793943  0.84037738  0.72748644    -0.07500
C1191       C  0.84118555  0.86432321  0.69727112     0.13400
C1192       C  0.84432053  0.86214564  0.65223809    -0.20900
C1193       C  0.84427404  0.83678376  0.63617102    -0.07500
C1194       C  0.84123588  0.81293935  0.66638278     0.13400
C1195       C  0.84197427  0.78543139  0.65181965    -0.24300
H1196       H  0.83612157  0.79697344  0.73446838     0.14700
H1197       H  0.84611754  0.88018558  0.62920098     0.14700
C1198       C  0.84035791  0.89184351  0.71166372    -0.24200
H1199       H  0.84190618  0.77051549  0.68021179     0.04900
H1200       H  0.86307270  0.79274516  0.63205358     0.08200
H1201       H  0.82147513  0.77154854  0.63215233     0.08200
H1202       H  0.86070335  0.90563966  0.73166225     0.08100
H1203       H  0.81909164  0.88455685  0.73100991     0.08100
H1204       H  0.84072177  0.90686813  0.68322357     0.04900
C1205       C  0.84475501  0.81568473  0.16249078    -0.20900
C1206       C  0.84543670  0.83978017  0.13599354    -0.07500
C1207       C  0.84095404  0.86173697  0.15602013     0.13400
C1208       C  0.83601087  0.85903440  0.20154460    -0.20900
C1209       C  0.83540633  0.83505481  0.22810953    -0.07500
C1210       C  0.84008268  0.81314306  0.20821708     0.13400
C1211       C  0.84116368  0.78758284  0.23477304    -0.24300
H1212       H  0.84795481  0.79869629  0.14724854     0.14700
H1213       H  0.83247440  0.87587535  0.21660098     0.14700
C1214       C  0.84055290  0.88775528  0.12982548    -0.24200
H1215       H  0.84728287  0.77405020  0.21414086     0.04900
H1216       H  0.81836896  0.77188026  0.24974202     0.08200
H1217       H  0.85860855  0.79691043  0.26076283     0.08200
H1218       H  0.82351968  0.87906352  0.10320309     0.08100
H1219       H  0.86369027  0.90328867  0.11590947     0.08100
H1220       H  0.83445012  0.90128568  0.15047762     0.04900
C1221       C  0.90496280  0.98986864  0.47511467    -0.20900
C1222       C  0.89835724  0.97845632  0.43280737    -0.07500
C1223       C  0.90528789  0.99971007  0.39627593     0.13400
C1224       C  0.91959916  0.03106473  0.40301819    -0.20900
C1225       C  0.92757118  0.04254604  0.44517247    -0.07500
C1226       C  0.91925559  0.02121680  0.48181894     0.13400
C1227       C  0.92594365  0.03096956  0.52823445    -0.24300
H1228       H  0.89937015  0.97414909  0.50369730     0.14700
H1229       H  0.92513412  0.04687295  0.37453336     0.14700
C1230       C  0.89833437  0.99002488  0.34981158    -0.24200
H1231       H  0.91801644  0.01123707  0.55263665     0.04900
H1232       H  0.91391794  0.04354677  0.53592278     0.08200
H1233       H  0.95099357  0.04555988  0.53228417     0.08200
H1234       H  0.91102125  0.97828167  0.34120536     0.08100
H1235       H  0.87333259  0.97472353  0.34635372     0.08100
H1236       H  0.90527556  0.00972807  0.32561498     0.04900
C1237       C  0.03827898  0.20314082  0.71392158    -0.20900
C1238       C  0.01369818  0.18176300  0.74095641    -0.07500
C1239       C  0.98565425  0.16210080  0.72093235     0.13400
C1240       C  0.98292123  0.16445726  0.67503015    -0.20900
C1241       C  0.00737233  0.18593199  0.64799103    -0.07500
C1242       C  0.03567255  0.20517859  0.66783636     0.13400
C1243       C  0.06357405  0.22710307  0.64070697    -0.24300
H1244       H  0.05975892  0.21833829  0.72902577     0.14700
H1245       H  0.96128449  0.14948728  0.66008728     0.14700
C1246       C  0.95803440  0.13922571  0.74771105    -0.24200
H1247       H  0.08416338  0.23875745  0.66132472     0.04900
H1248       H  0.05978662  0.24489399  0.62355690     0.08200
H1249       H  0.06846761  0.21467621  0.61629935     0.08200
H1250       H  0.95253866  0.15073097  0.77288649     0.08100
H1251       H  0.96265144  0.12170474  0.76376255     0.08100
H1252       H  0.93751343  0.12734230  0.72704078     0.04900
C1253       C  0.03476150  0.20788947  0.16646906    -0.20900
C1254       C  0.00610600  0.18797841  0.14899595    -0.07500
C1255       C  0.98254746  0.16653946  0.17824211     0.13400
C1256       C  0.98835626  0.16541272  0.22341963    -0.20900
C1257       C  0.01689106  0.18529669  0.24081876    -0.07500
C1258       C  0.04048909  0.20675385  0.21185458     0.13400
C1259       C  0.07208616  0.22773642  0.22837231    -0.24300
H1260       H  0.05300236  0.22399710  0.14435119     0.14700
H1261       H  0.97006269  0.14947691  0.24564183     0.14700
C1262       C  0.95067818  0.14552925  0.16259854    -0.24200
H1263       H  0.08828949  0.24138285  0.20100746     0.04900
H1264       H  0.08117599  0.21417716  0.24637128     0.08200
H1265       H  0.07140131  0.24391093  0.25048089     0.08200
H1266       H  0.95089501  0.12878170  0.14122762     0.08100
H1267       H  0.94157003  0.15896853  0.14432310     0.08100
H1268       H  0.93465576  0.13238869  0.19039264     0.04900
C1269       C  0.91438237  0.03302191  0.90823777    -0.20900
C1270       C  0.92701390  0.04437533  0.94916390    -0.07500
C1271       C  0.92314197  0.02328388  0.98455645     0.13400
C1272       C  0.90865591  0.99212601  0.97727776    -0.20900
C1273       C  0.89780473  0.98086135  0.93559525    -0.07500
C1274       C  0.89997550  0.00182716  0.90091136     0.13400
C1275       C  0.88719274  0.99188645  0.85609278    -0.24300
H1276       H  0.91640174  0.04883262  0.88110475     0.14700
H1277       H  0.90673562  0.97654804  0.00459546     0.14700
C1278       C  0.93504797  0.03314128  0.02980262    -0.24200
H1279       H  0.88947347  0.01122131  0.83398938     0.04900
H1280       H  0.86245088  0.97481562  0.85909656     0.08200
H1281       H  0.89975368  0.98209358  0.84027326     0.08200
H1282       H  0.92372519  0.04499224  0.04324848     0.08100
H1283       H  0.96024068  0.04844794  0.02828219     0.08100
H1284       H  0.93029297  0.01350572  0.05314784     0.04900
C1285       C  0.02605008  0.95310060  0.46293757    -0.20900
C1286       C  0.04259603  0.93970696  0.44790015    -0.07500
C1287       C  0.02744343  0.90804485  0.44415606     0.13400
C1288       C  0.99593348  0.89072974  0.45367756    -0.20900
C1289       C  0.97859233  0.90418764  0.46592233    -0.07500
C1290       C  0.99424409  0.93597377  0.47135732     0.13400
C1291       C  0.97777615  0.95239981  0.48437476    -0.24300
H1292       H  0.03807785  0.97736102  0.46717450     0.14700
H1293       H  0.98457476  0.86642658  0.45009216     0.14700
C1294       C  0.04453112  0.89237669  0.43070431    -0.24200
H1295       H  0.99370738  0.97714217  0.48666020     0.04900
H1296       H  0.96659709  0.94307758  0.51706389     0.08200
H1297       H  0.96034776  0.94984177  0.45952766     0.08200
H1298       H  0.06338642  0.89694383  0.45394297     0.08100
H1299       H  0.05411512  0.90090798  0.39704657     0.08100
H1300       H  0.02939707  0.86734518  0.43063551     0.04900
C1301       C  0.07160886  0.09455060  0.47092909    -0.20900
C1302       C  0.07093827  0.10716793  0.42868310    -0.07500
C1303       C  0.08811643  0.10545338  0.39443815     0.13400
C1304       C  0.10634482  0.09196164  0.40350587    -0.20900
C1305       C  0.10843942  0.08071198  0.44635256    -0.07500
C1306       C  0.09016074  0.08138892  0.48030033     0.13400
C1307       C  0.09139299  0.07005883  0.52675635    -0.24300
H1308       H  0.05872912  0.09655399  0.49736480     0.14700
H1309       H  0.11974084  0.09094642  0.37693885     0.14700
C1310       C  0.08857916  0.11937157  0.34910706    -0.24200
H1311       H  0.07688563  0.07402737  0.54943568     0.04900
H1312       H  0.11529751  0.08212839  0.53862399     0.08200
H1313       H  0.08291716  0.04522183  0.52819776     0.08200
H1314       H  0.09715621  0.14413028  0.35057084     0.08100
H1315       H  0.06507247  0.10837397  0.33571654     0.08100
H1316       H  0.10367463  0.11643585  0.32617450     0.04900
C1317       C  0.20428140  0.01354306  0.65873690    -0.20900
C1318       C  0.18453002  0.02279170  0.63836931    -0.07500
C1319       C  0.16713248  0.03061633  0.66508540     0.13400
C1320       C  0.16958867  0.02842008  0.71109472    -0.20900
C1321       C  0.18929716  0.01905603  0.73122509    -0.07500
C1322       C  0.20690049  0.01158106  0.70452761     0.13400
C1323       C  0.22743347  0.00016617  0.72399495    -0.24300
H1324       H  0.21754856  0.00726493  0.63860369     0.14700
H1325       H  0.15599150  0.03407811  0.73161610     0.14700
C1326       C  0.14674666  0.04215937  0.64557031    -0.24200
H1327       H  0.23805087  0.99361841  0.69833302     0.04900
H1328       H  0.21395344  0.97981786  0.74658779     0.08200
H1329       H  0.24623442  0.01824429  0.74216546     0.08200
H1330       H  0.12787460  0.02418079  0.62737378     0.08100
H1331       H  0.16033211  0.06250898  0.62300690     0.08100
H1332       H  0.13621502  0.04875885  0.67128951     0.04900
C1333       C  0.20746537  0.01645506  0.15925259    -0.20900
C1334       C  0.18349525  0.01936999  0.13890698    -0.07500
C1335       C  0.16106200  0.01961373  0.16593824     0.13400
C1336       C  0.16374509  0.01780289  0.21182681    -0.20900
C1337       C  0.18782671  0.01510668  0.23197797    -0.07500
C1338       C  0.20992044  0.01425259  0.20506126     0.13400
C1339       C  0.23565553  0.01008775  0.22394020    -0.24300
H1340       H  0.22444541  0.01549419  0.13910936     0.14700
H1341       H  0.14661103  0.01829543  0.23225137     0.14700
C1342       C  0.13418585  0.02171484  0.14725065    -0.24200
H1343       H  0.24937603  0.00772197  0.19796747     0.04900
H1344       H  0.22625031  0.98922083  0.24630032     0.08200
H1345       H  0.25142169  0.03020685  0.24199064     0.08200
H1346       H  0.11914650  0.00081822  0.13025722     0.08100
H1347       H  0.14224647  0.04211816  0.12414605     0.08100
H1348       H  0.12009087  0.02346416  0.17327397     0.04900
C1349       C  0.03173505  0.91670774  0.97477526    -0.20900
C1350       C  0.04437865  0.94307132  0.94625061    -0.07500
C1351       C  0.02514586  0.95402760  0.92875898     0.13400
C1352       C  0.99362436  0.93773292  0.93894818    -0.20900
C1353       C  0.98085307  0.91067504  0.96588402    -0.07500
C1354       C  0.00017080  0.90019602  0.98435087     0.13400
C1355       C  0.98746320  0.87169685  0.01434480    -0.24300
H1356       H  0.04662849  0.90879769  0.98921289     0.14700
H1357       H  0.97861582  0.94539291  0.92417800     0.14700
C1358       C  0.03781695  0.98311446  0.90002847    -0.24200
H1359       H  0.00579644  0.86713344  0.02688520     0.04900
H1360       H  0.97086128  0.85178457  0.99653231     0.08200
H1361       H  0.97572873  0.87417412  0.04294107     0.08200
H1362       H  0.04779415  0.98072078  0.86943442     0.08100
H1363       H  0.05579536  0.00224293  0.91782817     0.08100
H1364       H  0.01976340  0.98889964  0.89057896     0.04900
C1365       C  0.09001513  0.07871293  0.98203988    -0.20900
C1366       C  0.10761996  0.07948265  0.94639784    -0.07500
C1367       C  0.10245974  0.08957289  0.90401109     0.13400
C1368       C  0.08318794  0.10224865  0.89958214    -0.20900
C1369       C  0.06843708  0.10459435  0.93603051    -0.07500
C1370       C  0.07030753  0.09100490  0.97726736     0.13400
C1371       C  0.05126897  0.08920838  0.01611345    -0.24300
H1372       H  0.09239333  0.06939663  0.01391917     0.14700
H1373       H  0.08105912  0.11200712  0.86791665     0.14700
C1374       C  0.11692510  0.08703424  0.86287348    -0.24200
H1375       H  0.05438363  0.07659032  0.04506916     0.04900
H1376       H  0.02664892  0.07713473  0.00747232     0.08200
H1377       H  0.05774931  0.11228875  0.02580043     0.08200
H1378       H  0.11241116  0.06336334  0.86099414     0.08100
H1379       H  0.14185779  0.10319420  0.86258380     0.08100
H1380       H  0.10755743  0.09280177  0.83279015     0.04900
C1381       C  0.67702042  0.77528566  0.77233573    -0.20900
C1382       C  0.64943702  0.76330301  0.79609878    -0.07500
C1383       C  0.65061632  0.76680855  0.84197751     0.13400
C1384       C  0.67912794  0.78062416  0.86314897    -0.20900
C1385       C  0.70660689  0.79026212  0.83998703    -0.07500
C1386       C  0.70552221  0.78847928  0.79361747     0.13400
C1387       C  0.73434808  0.80071930  0.76615033    -0.24300
H1388       H  0.67619769  0.77294314  0.73721121     0.14700
H1389       H  0.67982473  0.78254796  0.89837067     0.14700
C1390       C  0.62175992  0.75587902  0.86884904    -0.24200
H1391       H  0.72939299  0.79959312  0.73048141     0.04900
H1392       H  0.74591558  0.78719323  0.77377088     0.08200
H1393       H  0.75010139  0.82490459  0.77262440     0.08200
H1394       H  0.60759962  0.73074938  0.86920300     0.08100
H1395       H  0.60837471  0.76636552  0.85470869     0.08100
H1396       H  0.62687657  0.76206682  0.90347242     0.04900
C1397       C  0.53535877  0.67825351  0.49166246    -0.20900
C1398       C  0.50656286  0.66978143  0.51052279    -0.07500
C1399       C  0.48198358  0.66441413  0.48213347     0.13400
C1400       C  0.48701707  0.66779906  0.43637201    -0.20900
C1401       C  0.51589717  0.67648098  0.41788517    -0.07500
C1402       C  0.54036404  0.68172315  0.44609877     0.13400
C1403       C  0.57217781  0.69225859  0.42869540    -0.24300
H1404       H  0.55457641  0.68287579  0.51276410     0.14700
H1405       H  0.46816991  0.66370499  0.41471795     0.14700
C1406       C  0.45037427  0.65481573  0.49930716    -0.24200
H1407       H  0.58891019  0.69713937  0.45556000     0.04900
H1408       H  0.58014650  0.71345402  0.40732350     0.08200
H1409       H  0.57220613  0.67432711  0.40977588     0.08200
H1410       H  0.45089257  0.67330326  0.51744124     0.08100
H1411       H  0.44194288  0.63381690  0.52125263     0.08100
H1412       H  0.43373652  0.64999171  0.47231752     0.04900
C1413       C  0.50854170  0.65106053  0.99024758    -0.20900
C1414       C  0.50564103  0.67370224  0.01048248    -0.07500
C1415       C  0.50866300  0.69913263  0.98444510     0.13400
C1416       C  0.51434202  0.70114418  0.93911169    -0.20900
C1417       C  0.51747853  0.67862150  0.91875499    -0.07500
C1418       C  0.51431403  0.65307978  0.94490125     0.13400
C1419       C  0.51620152  0.62748322  0.92542529    -0.24300
H1420       H  0.50656788  0.63168813  0.01030670     0.14700
H1421       H  0.51665445  0.72075993  0.91936528     0.14700
C1422       C  0.50720099  0.72483240  0.00432641    -0.24200
H1423       H  0.51165286  0.60874383  0.95043982     0.04900
H1424       H  0.53950123  0.63596791  0.91169510     0.08200
H1425       H  0.49898387  0.61789135  0.89919704     0.08200
H1426       H  0.52469772  0.73436043  0.03022907     0.08100
H1427       H  0.48408117  0.71637971  0.01862354     0.08100
H1428       H  0.51156243  0.74358251  0.97944990     0.04900
C1429       C  0.64796856  0.76379471  0.33823806    -0.20900
C1430       C  0.64881573  0.76445987  0.29213441    -0.07500
C1431       C  0.67753149  0.77846775  0.27025691     0.13400
C1432       C  0.70451137  0.79003359  0.29523174    -0.20900
C1433       C  0.70353391  0.78841517  0.34154875    -0.07500
C1434       C  0.67480302  0.77563303  0.36314260     0.13400
C1435       C  0.67209200  0.77278618  0.41249867    -0.24300
H1436       H  0.62592051  0.75294663  0.35502808     0.14700
H1437       H  0.72652636  0.79993051  0.27852933     0.14700
C1438       C  0.67973666  0.77996752  0.22092016    -0.24200
H1439       H  0.64780407  0.76072443  0.42384740     0.04900
H1440       H  0.68334416  0.79574085  0.42546965     0.08200
H1441       H  0.68306665  0.75976418  0.42638091     0.08200
H1442       H  0.66930386  0.79330440  0.20630570     0.08100
H1443       H  0.66751488  0.75664558  0.20910879     0.08100
H1444       H  0.70390393  0.79110531  0.20920431     0.04900
C1445       C  0.32323735  0.55568613  0.70111791    -0.20900
C1446       C  0.31190787  0.57127657  0.72442444    -0.07500
C1447       C  0.33184992  0.60241087  0.73114768     0.13400
C1448       C  0.36213455  0.61694689  0.71433329    -0.20900
C1449       C  0.37344054  0.60114335  0.69173936    -0.07500
C1450       C  0.35366140  0.57002958  0.68530256     0.13400
C1451       C  0.36453308  0.55198458  0.66124308    -0.24300
H1452       H  0.30804923  0.53198662  0.69509071     0.14700
H1453       H  0.37763792  0.64047857  0.72088181     0.14700
C1454       C  0.32135050  0.62053866  0.75560555    -0.24200
H1455       H  0.37252842  0.56271972  0.62769997     0.04900
H1456       H  0.34597876  0.52815977  0.65812188     0.08200
H1457       H  0.38360904  0.55122578  0.67907506     0.08200
H1458       H  0.31477798  0.61060488  0.78979931     0.08100
H1459       H  0.30144074  0.62024523  0.73886346     0.08100
H1460       H  0.33964304  0.64464622  0.75711477     0.04900
C1461       C  0.05958066  0.34128845  0.89533954    -0.20900
C1462       C  0.07640883  0.32782003  0.91244553    -0.07500
C1463       C  0.10823275  0.34248096  0.90305726     0.13400
C1464       C  0.12226163  0.36977316  0.87621214    -0.20900
C1465       C  0.10517911  0.38267755  0.85755891    -0.07500
C1466       C  0.07333270  0.36825834  0.86790399     0.13400
C1467       C  0.05301241  0.37974727  0.84767964    -0.24300
H1468       H  0.03497213  0.32926892  0.90060427     0.14700
H1469       H  0.14658287  0.38070802  0.86894949     0.14700
C1470       C  0.12715578  0.32850755  0.91999691    -0.24200
H1471       H  0.02846715  0.36404485  0.85596380     0.04900
H1472       H  0.05549775  0.38190713  0.81133355     0.08200
H1473       H  0.05908010  0.40209511  0.86013856     0.08200
H1474       H  0.11892362  0.30608231  0.90620073     0.08100
H1475       H  0.12527811  0.32537561  0.95636937     0.08100
H1476       H  0.15171972  0.34308479  0.91075970     0.04900
C1477       C  0.15115621  0.51718698  0.50981966    -0.20900
C1478       C  0.17400327  0.51359255  0.53223232    -0.07500
C1479       C  0.19370182  0.50704023  0.50864468     0.13400
C1480       C  0.18967576  0.50377749  0.46344034    -0.20900
C1481       C  0.16667306  0.50710430  0.44122977    -0.07500
C1482       C  0.14739767  0.51429689  0.46452051     0.13400
C1483       C  0.12366950  0.52002116  0.44174014    -0.24300
H1484       H  0.13609217  0.52228652  0.52798512     0.14700
H1485       H  0.20461746  0.49856065  0.44517964     0.14700
C1486       C  0.21846755  0.50275646  0.53076275    -0.24200
H1487       H  0.11206978  0.52733328  0.46474174     0.04900
H1488       H  0.10585570  0.49887674  0.42771158     0.08200
H1489       H  0.13469574  0.53827289  0.41515275     0.08200
H1490       H  0.20847128  0.48460106  0.55765182     0.08100
H1491       H  0.23572261  0.52444798  0.54405504     0.08100
H1492       H  0.23055587  0.49618220  0.50745908     0.04900
C1493       C  0.14612732  0.48643018  0.01353140    -0.20900
C1494       C  0.16464876  0.51433689  0.03226576    -0.07500
C1495       C  0.18260535  0.54067187  0.00456895     0.13400
C1496       C  0.18181004  0.53817479  0.95896677    -0.20900
C1497       C  0.16363773  0.51013433  0.94044619    -0.07500
C1498       C  0.14559264  0.48387820  0.96811258     0.13400
C1499       C  0.12701379  0.45281976  0.95038016    -0.24300
H1500       H  0.13261549  0.46616203  0.03474447     0.14700
H1501       H  0.19556789  0.55824443  0.93753634     0.14700
C1502       C  0.20208557  0.57149317  0.02248336    -0.24200
H1503       H  0.11586563  0.43469962  0.97711620     0.04900
H1504       H  0.14211674  0.44739572  0.93134618     0.08200
H1505       H  0.10862068  0.45216228  0.92898327     0.08200
H1506       H  0.22089529  0.57168316  0.04233207     0.08100
H1507       H  0.18779204  0.57707645  0.04307899     0.08100
H1508       H  0.21277382  0.58971690  0.99578208     0.04900
C1509       C  0.36006697  0.58610639  0.23796336    -0.20900
C1510       C  0.37236393  0.60414320  0.19837686    -0.07500
C1511       C  0.35259828  0.60923494  0.17008324     0.13400
C1512       C  0.32137057  0.59561348  0.18153936    -0.20900
C1513       C  0.30910333  0.57747459  0.22106289    -0.07500
C1514       C  0.32904225  0.57304022  0.24983926     0.13400
C1515       C  0.31793679  0.55409915  0.29261930    -0.24300
H1516       H  0.37500284  0.58250626  0.26062846     0.14700
H1517       H  0.30632024  0.59914482  0.15904718     0.14700
C1518       C  0.36385835  0.62832902  0.12747839    -0.24200
H1519       H  0.33657833  0.55223543  0.31016564     0.04900
H1520       H  0.29956028  0.53072402  0.28639322     0.08200
H1521       H  0.30912534  0.56473998  0.31459200     0.08200
H1522       H  0.37510984  0.61925866  0.10693180     0.08100
H1523       H  0.38029568  0.65227477  0.13417070     0.08100
H1524       H  0.34482788  0.62833902  0.10833727     0.04900
C1525       C  0.10945614  0.33954624  0.40347670    -0.20900
C1526       C  0.07910361  0.32786298  0.41822717    -0.07500
C1527       C  0.06420065  0.34473945  0.40798491     0.13400
C1528       C  0.07917055  0.37177969  0.38099347    -0.20900
C1529       C  0.10862172  0.38222277  0.36275231    -0.07500
C1530       C  0.12436565  0.36629548  0.37575516     0.13400
C1531       C  0.15653531  0.37674136  0.36014994    -0.24300
H1532       H  0.12063747  0.32616605  0.41069789     0.14700
H1533       H  0.06693168  0.38390689  0.37218921     0.14700
C1534       C  0.03163942  0.33302317  0.42295812    -0.24200
H1535       H  0.16570092  0.36249072  0.37568664     0.04900
H1536       H  0.17193248  0.40057852  0.36861266     0.08200
H1537       H  0.15692270  0.37508423  0.32412505     0.08200
H1538       H  0.03025078  0.33023441  0.45937394     0.08100
H1539       H  0.01632873  0.31069480  0.40930700     0.08100
H1540       H  0.02318230  0.34887058  0.41205131     0.04900
C1541       C  0.23176598  0.92838313  0.81117798    -0.20900
C1542       C  0.23094559  0.92709174  0.85738171    -0.07500
C1543       C  0.23860270  0.90679718  0.88098903     0.13400
C1544       C  0.24790691  0.88942134  0.85786734    -0.20900
C1545       C  0.24937229  0.89124945  0.81168997    -0.07500
C1546       C  0.24077308  0.91074503  0.78817503     0.13400
C1547       C  0.24249756  0.91408621  0.73879427    -0.24300
H1548       H  0.22559810  0.94357665  0.79288628     0.14700
H1549       H  0.25465928  0.87466739  0.87597710     0.14700
C1550       C  0.23838379  0.90432982  0.93049341    -0.24200
H1551       H  0.23554576  0.93067832  0.72550179     0.04900
H1552       H  0.22698466  0.89179887  0.72524115     0.08200
H1553       H  0.26633749  0.92218833  0.72752541     0.08200
H1554       H  0.21469664  0.89509017  0.94323275     0.08100
H1555       H  0.25340313  0.92708514  0.94311689     0.08100
H1556       H  0.24679876  0.88883541  0.94349632     0.04900
C1557       C  0.24058276  0.68918609  0.68185500    -0.20900
C1558       C  0.25823305  0.69737652  0.72040677    -0.07500
C1559       C  0.26564641  0.67616046  0.74145816     0.13400
C1560       C  0.25591726  0.64813541  0.72285451    -0.20900
C1561       C  0.23824338  0.64026670  0.68455350    -0.07500
C1562       C  0.23103636  0.66136529  0.66343554     0.13400
C1563       C  0.21423053  0.65508152  0.62048618    -0.24300
H1564       H  0.23440043  0.70488811  0.66522424     0.14700
H1565       H  0.26094729  0.63172142  0.73967277     0.14700
C1566       C  0.28302930  0.68228328  0.78382997    -0.24200
H1567       H  0.21198272  0.67480503  0.60717402     0.04900
H1568       H  0.19082339  0.63528867  0.62478135     0.08200
H1569       H  0.22707528  0.65036311  0.59586665     0.08200
H1570       H  0.27007695  0.68585705  0.80964149     0.08100
H1571       H  0.30598270  0.70271458  0.77931993     0.08100
H1572       H  0.28635925  0.66292926  0.79569345     0.04900
C1573       C  0.42906956  0.78207640  0.68556582    -0.20900
C1574       C  0.39681532  0.76541834  0.68533914    -0.07500
C1575       C  0.38206806  0.73322750  0.69056493     0.13400
C1576       C  0.39994547  0.71896574  0.69751719    -0.20900
C1577       C  0.43200127  0.73602893  0.70013369    -0.07500
C1578       C  0.44675380  0.76793265  0.69300218     0.13400
C1579       C  0.48112648  0.78787525  0.69255094    -0.24300
H1580       H  0.44078054  0.80669867  0.68106290     0.14700
H1581       H  0.38884711  0.69437681  0.70162318     0.14700
C1582       C  0.34770572  0.71384019  0.69055358    -0.24200
H1583       H  0.48785452  0.80430046  0.71853123     0.04900
H1584       H  0.48878534  0.80075459  0.66016520     0.08200
H1585       H  0.49348718  0.77495909  0.69821976     0.08200
H1586       H  0.33875229  0.71697677  0.65825791     0.08100
H1587       H  0.33760610  0.72041103  0.71678504     0.08100
H1588       H  0.34015532  0.68926042  0.69656523     0.04900
C1589       C  0.35016353  0.84807299  0.49448522    -0.20900
C1590       C  0.32512542  0.82527318  0.51925109    -0.07500
C1591       C  0.29887997  0.80415119  0.49727694     0.13400
C1592       C  0.29807644  0.80698168  0.45127761    -0.20900
C1593       C  0.32273471  0.83043198  0.42663760    -0.07500
C1594       C  0.34947941  0.85077107  0.44853696     0.13400
C1595       C  0.37775681  0.87471510  0.42389231    -0.24300
H1596       H  0.37040227  0.86410995  0.51134405     0.14700
H1597       H  0.27775382  0.79108446  0.43444070     0.14700
C1598       C  0.27118338  0.77941623  0.52198281    -0.24200
H1599       H  0.39724285  0.88678513  0.44623472     0.04900
H1600       H  0.37316197  0.89202648  0.40695323     0.08200
H1601       H  0.38490860  0.86397704  0.39955413     0.08200
H1602       H  0.26262653  0.78955557  0.54528837     0.08100
H1603       H  0.27728783  0.76354166  0.54017839     0.08100
H1604       H  0.25224435  0.76591088  0.49955869     0.04900
C1605       C  0.32781929  0.86120860  0.99623497    -0.20900
C1606       C  0.33935335  0.84392186  0.01864520    -0.07500
C1607       C  0.34845199  0.82682982  0.99408819     0.13400
C1608       C  0.34483890  0.82685159  0.94831788    -0.20900
C1609       C  0.33259715  0.84356724  0.92623825    -0.07500
C1610       C  0.32431540  0.86125968  0.95055543     0.13400
C1611       C  0.31024054  0.87896977  0.92902884    -0.24300
H1612       H  0.32062562  0.87420234  0.01472951     0.14700
H1613       H  0.35152608  0.81357183  0.92954385     0.14700
C1614       C  0.36251897  0.80898187  0.01533681    -0.24200
H1615       H  0.30314863  0.88973252  0.95340569     0.04900
H1616       H  0.28961662  0.86336118  0.91091023     0.08200
H1617       H  0.32697594  0.89739294  0.90607500     0.08200
H1618       H  0.34539550  0.78968655  0.03668425     0.08100
H1619       H  0.38258695  0.82404168  0.03497762     0.08100
H1620       H  0.37051898  0.79923425  0.99058059     0.04900
C1621       C  0.24377763  0.88723248  0.35174570    -0.20900
C1622       C  0.24713292  0.89145828  0.30570217    -0.07500
C1623       C  0.24113648  0.91331977  0.28375772     0.13400
C1624       C  0.23237125  0.93055843  0.30825385    -0.20900
C1625       C  0.22964087  0.92684907  0.35449040    -0.07500
C1626       C  0.23506278  0.90445044  0.37633490     0.13400
C1627       C  0.23351942  0.89976832  0.42568832    -0.24300
H1628       H  0.24925430  0.87110114  0.36878557     0.14700
H1629       H  0.22814749  0.94750913  0.29114859     0.14700
C1630       C  0.24573778  0.91974398  0.23478696    -0.24200
H1631       H  0.24025290  0.88269911  0.43734774     0.04900
H1632       H  0.20979422  0.89142066  0.43759243     0.08200
H1633       H  0.24931302  0.92153840  0.44040532     0.08200
H1634       H  0.23035535  0.89882696  0.21789106     0.08100
H1635       H  0.26988503  0.92727972  0.22585429     0.08100
H1636       H  0.24061913  0.93790614  0.22278033     0.04900
C1637       C  0.27695517  0.68670833  0.18812409    -0.20900
C1638       C  0.26167464  0.69895257  0.21013086    -0.07500
C1639       C  0.22982699  0.68143319  0.21717403     0.13400
C1640       C  0.21404544  0.65208555  0.20180884    -0.20900
C1641       C  0.22939221  0.63920691  0.18085657    -0.07500
C1642       C  0.26147609  0.65709241  0.17387815     0.13400
C1643       C  0.27985210  0.64560144  0.15137422    -0.24300
H1644       H  0.30139956  0.70062862  0.18193921     0.14700
H1645       H  0.18953836  0.63883314  0.20754966     0.14700
C1646       C  0.21233559  0.69382224  0.23987714    -0.24200
H1647       H  0.30406367  0.66365621  0.14571339     0.04900
H1648       H  0.26986199  0.63737157  0.11893791     0.08200
H1649       H  0.28017417  0.62704131  0.17228757     0.08200
H1650       H  0.21560183  0.71495706  0.22172263     0.08100
H1651       H  0.22063006  0.69888656  0.27393764     0.08100
H1652       H  0.18739884  0.67729427  0.24176082     0.04900
C1653       C  0.45162188  0.77329069  0.17296205    -0.20900
C1654       C  0.43913653  0.74542952  0.19805693    -0.07500
C1655       C  0.40867160  0.73194640  0.21408388     0.13400
C1656       C  0.39197405  0.74729448  0.20633314    -0.20900
C1657       C  0.40507003  0.77590753  0.18336193    -0.07500
C1658       C  0.43511866  0.78892651  0.16610133     0.13400
C1659       C  0.44976121  0.81939498  0.14071440    -0.24300
H1660       H  0.47470147  0.78325697  0.15975410     0.14700
H1661       H  0.36906601  0.73758870  0.22011493     0.14700
C1662       C  0.39354727  0.70120242  0.23883912    -0.24200
H1663       H  0.47300223  0.82594041  0.12838608     0.04900
H1664       H  0.45193764  0.83724527  0.16203263     0.08200
H1665       H  0.43543502  0.81853482  0.11207453     0.08200
H1666       H  0.40574303  0.70224228  0.26993834     0.08100
H1667       H  0.39394724  0.68403581  0.21841886     0.08100
H1668       H  0.36929458  0.69350713  0.24732019     0.04900
C1669       C  0.59222344  0.58212717  0.67102275    -0.20900
C1670       C  0.60834657  0.59225331  0.63038032    -0.07500
C1671       C  0.62322859  0.62377306  0.61831909     0.13400
C1672       C  0.61991697  0.64349811  0.64566341    -0.20900
C1673       C  0.60211758  0.63274555  0.68490159    -0.07500
C1674       C  0.58944839  0.60169967  0.69856489     0.13400
C1675       C  0.57190058  0.58837108  0.74129414    -0.24300
H1676       H  0.58128909  0.55828241  0.68188225     0.14700
H1677       H  0.63010245  0.66740112  0.63515336     0.14700
C1678       C  0.64159037  0.63670365  0.57623785    -0.24200
H1679       H  0.56466872  0.56386167  0.74720382     0.04900
H1680       H  0.55086782  0.59021671  0.74090907     0.08200
H1681       H  0.58653364  0.60042925  0.76908857     0.08200
H1682       H  0.62683928  0.62598104  0.54784683     0.08100
H1683       H  0.66128399  0.63249940  0.57678608     0.08100
H1684       H  0.65088183  0.66166307  0.57146260     0.04900
C1685       C  0.70703403  0.64978848  0.48207795    -0.20900
C1686       C  0.72379365  0.63643453  0.50087939    -0.07500
C1687       C  0.75589015  0.65170859  0.49416093     0.13400
C1688       C  0.77038889  0.68055325  0.47170011    -0.20900
C1689       C  0.75384687  0.69471019  0.45561563    -0.07500
C1690       C  0.72161206  0.67875018  0.45984416     0.13400
C1691       C  0.70203904  0.69214991  0.44356199    -0.24300
H1692       H  0.68233885  0.63806290  0.48625432     0.14700
H1693       H  0.79517218  0.69302968  0.46883955     0.14700
C1694       C  0.77508817  0.63784173  0.51013333    -0.24200
H1695       H  0.68492844  0.67686649  0.42027400     0.04900
H1696       H  0.71542064  0.71488609  0.42626815     0.08200
H1697       H  0.68975230  0.69432163  0.47173515     0.08200
H1698       H  0.76641970  0.61535500  0.49625973     0.08100
H1699       H  0.77438213  0.63518076  0.54652233     0.08100
H1700       H  0.79946339  0.65231910  0.49981136     0.04900
C1701       C  0.62120802  0.50210455  0.87668076    -0.20900
C1702       C  0.64859589  0.50608128  0.89560273    -0.07500
C1703       C  0.66994725  0.50354759  0.86888859     0.13400
C1704       C  0.66331231  0.49711315  0.82465447    -0.20900
C1705       C  0.63624270  0.49364010  0.80545505    -0.07500
C1706       C  0.61471120  0.49592488  0.83212293     0.13400
C1707       C  0.58448910  0.49110633  0.81443880    -0.24300
H1708       H  0.60458227  0.50351477  0.89704851     0.14700
H1709       H  0.68010546  0.49590977  0.80438722     0.14700
C1710       C  0.70058073  0.50901782  0.88581943    -0.24200
H1711       H  0.56952458  0.49107831  0.84076667     0.04900
H1712       H  0.57216351  0.46883298  0.79939691     0.08200
H1713       H  0.58819488  0.50966903  0.78968233     0.08200
H1714       H  0.69747791  0.49084648  0.91089871     0.08100
H1715       H  0.71292247  0.53156042  0.90009841     0.08100
H1716       H  0.71532115  0.50889533  0.85927466     0.04900
C1717       C  0.66610252  0.49372128  0.32616841    -0.20900
C1718       C  0.64216544  0.49576182  0.30463609    -0.07500
C1719       C  0.62248261  0.50181971  0.32992017     0.13400
C1720       C  0.62802839  0.50663724  0.37489014    -0.20900
C1721       C  0.65223714  0.50506689  0.39628971    -0.07500
C1722       C  0.67133724  0.49803540  0.37134058     0.13400
C1723       C  0.69785561  0.49564427  0.39128234    -0.24300
H1724       H  0.68134611  0.48928198  0.30728153     0.14700
H1725       H  0.61286065  0.51120732  0.39373716     0.14700
C1726       C  0.59487102  0.50240250  0.31062283    -0.24200
H1727       H  0.71145086  0.49232786  0.36615978     0.04900
H1728       H  0.68930047  0.47573820  0.41540721     0.08200
H1729       H  0.71348959  0.51681969  0.40746398     0.08200
H1730       H  0.58022006  0.48101651  0.29426893     0.08100
H1731       H  0.60207885  0.52230927  0.28687555     0.08100
H1732       H  0.58062692  0.50435833  0.33620278     0.04900
C1733       C  0.59149887  0.58419789  0.17030763    -0.20900
C1734       C  0.60802814  0.59405603  0.13001579    -0.07500
C1735       C  0.62202553  0.62538325  0.11666859     0.13400
C1736       C  0.61775722  0.64514593  0.14269416    -0.20900
C1737       C  0.60021565  0.63470797  0.18214955    -0.07500
C1738       C  0.58798049  0.60385118  0.19670996     0.13400
C1739       C  0.57012764  0.59072046  0.23925710    -0.24300
H1740       H  0.58092439  0.56049008  0.18191514     0.14700
H1741       H  0.62735753  0.66884536  0.13130623     0.14700
C1742       C  0.64075385  0.63811140  0.07486065    -0.24200
H1743       H  0.56321320  0.56633794  0.24586272     0.04900
H1744       H  0.54887395  0.59214298  0.23796891     0.08200
H1745       H  0.58437392  0.60315629  0.26711237     0.08200
H1746       H  0.62655426  0.62655088  0.04644368     0.08100
H1747       H  0.66100064  0.63479046  0.07673865     0.08100
H1748       H  0.64925256  0.66288576  0.06901107     0.04900
C1749       C  0.70965146  0.65352583  0.98008174    -0.20900
C1750       C  0.72606790  0.63962490  0.99828462    -0.07500
C1751       C  0.75814385  0.65446381  0.99127133     0.13400
C1752       C  0.77306864  0.68359638  0.96968164    -0.20900
C1753       C  0.75690655  0.69829381  0.95434711    -0.07500
C1754       C  0.72473375  0.68280023  0.95864625     0.13400
C1755       C  0.70655755  0.69785861  0.94301360    -0.24300
H1756       H  0.68499541  0.64205931  0.98450480     0.14700
H1757       H  0.79784483  0.69575396  0.96673012     0.14700
C1758       C  0.77684982  0.63976110  0.00588193    -0.24200
H1759       H  0.68160184  0.68261823  0.94887996     0.04900
H1760       H  0.71050007  0.70401663  0.90722181     0.08200
H1761       H  0.71377845  0.71878215  0.96068617     0.08200
H1762       H  0.76748713  0.61735584  0.99145364     0.08100
H1763       H  0.77653836  0.63676051  0.04221685     0.08100
H1764       H  0.80116791  0.65385634  0.99508762     0.04900
C1765       C  0.59258706  0.32000480  0.63329800    -0.20900
C1766       C  0.56297104  0.30240213  0.61712677    -0.07500
C1767       C  0.54261755  0.31395117  0.61586514     0.13400
C1768       C  0.55277810  0.34330360  0.62923046    -0.20900
C1769       C  0.58311188  0.36190320  0.64301058    -0.07500
C1770       C  0.60303253  0.34957838  0.64626468     0.13400
C1771       C  0.63551847  0.36744502  0.66182032    -0.24300
H1772       H  0.60777122  0.31058245  0.63529491     0.14700
H1773       H  0.53714694  0.35227464  0.62712307     0.14700
C1774       C  0.51001018  0.29518729  0.60122172    -0.24200
H1775       H  0.64734471  0.35380264  0.66292071     0.04900
H1776       H  0.63560748  0.37451063  0.69553008     0.08200
H1777       H  0.64882958  0.38777709  0.63913658     0.08200
H1778       H  0.49801099  0.27395344  0.62270690     0.08100
H1779       H  0.50974556  0.28931891  0.56674449     0.08100
H1780       H  0.49708755  0.30765043  0.60277188     0.04900
C1781       C  0.38821558  0.02383362  0.69021833    -0.20900
C1782       C  0.39745914  0.03015649  0.64545714    -0.07500
C1783       C  0.38456265  0.00635907  0.61693668     0.13400
C1784       C  0.36626556  0.97676223  0.63494807    -0.20900
C1785       C  0.36263361  0.96981326  0.68101339    -0.07500
C1786       C  0.37195832  0.99392820  0.70876905     0.13400
C1787       C  0.36653629  0.98874814  0.75772342    -0.24300
H1788       H  0.39625162  0.04235491  0.71183110     0.14700
H1789       H  0.35714175  0.95866619  0.61252453     0.14700
C1790       C  0.39160974  0.01122957  0.56826865    -0.24200
H1791       H  0.37459095  0.01045701  0.77372383     0.04900
H1792       H  0.37923837  0.97770512  0.77241578     0.08200
H1793       H  0.34166871  0.97421827  0.76501214     0.08200
H1794       H  0.41647732  0.02040101  0.56254475     0.08100
H1795       H  0.38448298  0.02720152  0.55299910     0.08100
H1796       H  0.37932738  0.98968833  0.55134857     0.04900
C1797       C  0.36751161  0.10858776  0.47896055    -0.20900
C1798       C  0.36931652  0.09975723  0.52317487    -0.07500
C1799       C  0.34535124  0.07209150  0.54130270     0.13400
C1800       C  0.32024556  0.05417803  0.51533810    -0.20900
C1801       C  0.31729119  0.06335895  0.47163200    -0.07500
C1802       C  0.34175663  0.09097132  0.45304250     0.13400
C1803       C  0.34133673  0.10182655  0.40606254    -0.24300
H1804       H  0.38666821  0.12917099  0.46444655     0.14700
H1805       H  0.30263146  0.03257416  0.52978758     0.14700
C1806       C  0.34664131  0.06085616  0.58784008    -0.24200
H1807       H  0.36266999  0.12337087  0.39685188     0.04900
H1808       H  0.32178015  0.10603874  0.40109710     0.08200
H1809       H  0.33931770  0.08444736  0.38383286     0.08200
H1810       H  0.34805688  0.07756003  0.61087335     0.08100
H1811       H  0.36705338  0.05799521  0.59181531     0.08100
H1812       H  0.32606612  0.03861018  0.59691470     0.04900
C1813       C  0.48783257  0.14078950  0.83859535    -0.20900
C1814       C  0.51530798  0.16198543  0.81679892    -0.07500
C1815       C  0.54067353  0.18152494  0.84185754     0.13400
C1816       C  0.53771397  0.17936258  0.88782122    -0.20900
C1817       C  0.51003359  0.15850343  0.90942866    -0.07500
C1818       C  0.48473353  0.13886674  0.88435304     0.13400
C1819       C  0.45394185  0.11673093  0.90506757    -0.24300
H1820       H  0.46822497  0.12598185  0.81953916     0.14700
H1821       H  0.55715175  0.19425288  0.90708856     0.14700
C1822       C  0.57098900  0.20437475  0.82076489    -0.24200
H1823       H  0.43637939  0.10482412  0.88002170     0.04900
H1824       H  0.44574711  0.12903119  0.92480503     0.08200
H1825       H  0.45566263  0.09902975  0.92630856     0.08200
H1826       H  0.56847457  0.22198243  0.80054567     0.08100
H1827       H  0.57934031  0.19275323  0.79989027     0.08100
H1828       H  0.58870290  0.21625119  0.84563515     0.04900
C1829       C  0.52580626  0.18111130  0.38997570    -0.20900
C1830       C  0.49695749  0.16215627  0.40973807    -0.07500
C1831       C  0.47195359  0.14351772  0.38362332     0.13400
C1832       C  0.47676496  0.14344911  0.33859672    -0.20900
C1833       C  0.50576276  0.16196449  0.31874652    -0.07500
C1834       C  0.53059599  0.18139622  0.34481384     0.13400
C1835       C  0.56235467  0.20184042  0.32594115    -0.24300
H1836       H  0.54488279  0.19549059  0.41022426     0.14700
H1837       H  0.45751523  0.12917195  0.31855665     0.14700
C1838       C  0.43995103  0.12474302  0.40253983    -0.24200
H1839       H  0.57916023  0.21372818  0.35185528     0.04900
H1840       H  0.56241199  0.21962367  0.30274771     0.08200
H1841       H  0.57024031  0.18822947  0.30879102     0.08200
H1842       H  0.43345262  0.13963473  0.41913392     0.08100
H1843       H  0.43863894  0.10666413  0.42641777     0.08100
H1844       H  0.42286293  0.11345275  0.37667822     0.04900
C1845       C  0.58972976  0.31563895  0.15153789    -0.20900
C1846       C  0.57325515  0.30205719  0.11348941    -0.07500
C1847       C  0.56764457  0.32031235  0.08199984     0.13400
C1848       C  0.57828255  0.35094759  0.08945226    -0.20900
C1849       C  0.59432486  0.36446776  0.12775050    -0.07500
C1850       C  0.60050443  0.34646748  0.15888862     0.13400
C1851       C  0.61736248  0.35907396  0.20053452    -0.24300
H1852       H  0.59378529  0.30188343  0.17644324     0.14700
H1853       H  0.57384098  0.36450002  0.06459888     0.14700
C1854       C  0.54947648  0.30769181  0.04118544    -0.24200
H1855       H  0.61896223  0.34139017  0.22206343     0.04900
H1856       H  0.60520622  0.36812829  0.21918031     0.08200
H1857       H  0.64104963  0.37749369  0.19270139     0.08200
H1858       H  0.52638371  0.28846455  0.05037447     0.08100
H1859       H  0.56168848  0.29990554  0.02018097     0.08100
H1860       H  0.54627385  0.32501190  0.02121952     0.04900
C1861       C  0.40780436  0.97626758  0.18755576    -0.20900
C1862       C  0.37662793  0.96740053  0.18788791    -0.07500
C1863       C  0.36603517  0.98382016  0.16047949     0.13400
C1864       C  0.38732925  0.01009893  0.13589437    -0.20900
C1865       C  0.41868079  0.01974791  0.13748237    -0.07500
C1866       C  0.42886550  0.00189888  0.16200219     0.13400
C1867       C  0.46213893  0.01021615  0.16153745    -0.24300
H1868       H  0.41566280  0.96276777  0.20680979     0.14700
H1869       H  0.37974547  0.02427560  0.11783172     0.14700
C1870       C  0.33256405  0.97460418  0.15880013    -0.24200
H1871       H  0.46594320  0.99313152  0.18108577     0.04900
H1872       H  0.47655304  0.03256691  0.17551489     0.08200
H1873       H  0.46976160  0.01136094  0.12721848     0.08200
H1874       H  0.32395992  0.97390900  0.19232452     0.08100
H1875       H  0.31917577  0.95187112  0.14542390     0.08100
H1876       H  0.32859017  0.99087083  0.13737960     0.04900
C1877       C  0.37009918  0.07238986  0.98965503    -0.20900
C1878       C  0.38274675  0.10284685  0.00067990    -0.07500
C1879       C  0.36925035  0.11996330  0.98304128     0.13400
C1880       C  0.34258150  0.10564635  0.95774649    -0.20900
C1881       C  0.32855844  0.07454072  0.95010777    -0.07500
C1882       C  0.34312617  0.05801190  0.96523755     0.13400
C1883       C  0.32964560  0.02459400  0.95870982    -0.24300
H1884       H  0.38042136  0.05905476  0.00212427     0.14700
H1885       H  0.33105996  0.11819093  0.94701143     0.14700
C1886       C  0.38238555  0.15312404  0.99110986    -0.24200
H1887       H  0.34661671  0.02084106  0.94143206     0.04900
H1888       H  0.30857813  0.01541542  0.93882930     0.08200
H1889       H  0.32396353  0.01162970  0.99114092     0.08200
H1890       H  0.40674517  0.16604342  0.98020054     0.08100
H1891       H  0.38058901  0.15582739  0.02653082     0.08100
H1892       H  0.36990558  0.16322284  0.97279503     0.04900
C1893       C  0.90369067  0.27530876  0.51160035    -0.20900
C1894       C  0.90091812  0.27353753  0.55770861    -0.07500
C1895       C  0.91286982  0.25752137  0.58308323     0.13400
C1896       C  0.92758474  0.24423577  0.56185207    -0.20900
C1897       C  0.93048736  0.24621062  0.51581127    -0.07500
C1898       C  0.91821028  0.26185690  0.49040397     0.13400
C1899       C  0.92172245  0.26575761  0.44111194    -0.24300
H1900       H  0.89484951  0.28780578  0.49197411     0.14700
H1901       H  0.93722043  0.23244338  0.58139105     0.14700
C1902       C  0.91153925  0.25561499  0.63252195    -0.24200
H1903       H  0.91202817  0.27978835  0.42652543     0.04900
H1904       H  0.90950906  0.24322226  0.42689780     0.08200
H1905       H  0.94637459  0.27720992  0.43177207     0.08200
H1906       H  0.88733426  0.24315363  0.64410317     0.08100
H1907       H  0.92309149  0.27887097  0.64459113     0.08100
H1908       H  0.92310869  0.24335729  0.64713910     0.04900
C1909       C  0.78516815  0.45353754  0.62468024    -0.20900
C1910       C  0.77583743  0.42656556  0.65173411    -0.07500
C1911       C  0.74539165  0.41111964  0.66886274     0.13400
C1912       C  0.72549073  0.42246747  0.65746244    -0.20900
C1913       C  0.73458792  0.44837763  0.62871595    -0.07500
C1914       C  0.76500610  0.46440389  0.61276226     0.13400
C1915       C  0.77659720  0.49339989  0.58405565    -0.24300
H1916       H  0.80834223  0.46603854  0.61156211     0.14700
H1917       H  0.70229626  0.41063447  0.67055464     0.14700
C1918       C  0.73312731  0.38244498  0.69846830    -0.24200
H1919       H  0.80142134  0.50387020  0.57636477     0.04900
H1920       H  0.77304966  0.51014359  0.60106807     0.08200
H1921       H  0.76424292  0.48862686  0.55250300     0.08200
H1922       H  0.74717175  0.38689978  0.72848459     0.08100
H1923       H  0.73339949  0.36411996  0.68083762     0.08100
H1924       H  0.70908501  0.37402951  0.70908024     0.04900
C1925       C  0.68801070  0.28660583  0.66687011    -0.20900
C1926       C  0.70664057  0.27768656  0.64588954    -0.07500
C1927       C  0.69388748  0.24770028  0.63305400     0.13400
C1928       C  0.66240360  0.22806476  0.63822487    -0.20900
C1929       C  0.64294402  0.23742561  0.65600523    -0.07500
C1930       C  0.65629788  0.26684051  0.67238589     0.13400
C1931       C  0.63765970  0.27786289  0.69522692    -0.24300
H1932       H  0.69827427  0.30934067  0.67833077     0.14700
H1933       H  0.65289000  0.20526481  0.62722485     0.14700
C1934       C  0.71352551  0.23594545  0.61515749    -0.24200
H1935       H  0.65204510  0.30136883  0.70578030     0.04900
H1936       H  0.62632977  0.26275415  0.72497465     0.08200
H1937       H  0.62014273  0.27794086  0.67276857     0.08200
H1938       H  0.73134761  0.23866875  0.63937006     0.08100
H1939       H  0.72452206  0.24859887  0.58370723     0.08100
H1940       H  0.69994725  0.21144919  0.60876911     0.04900
C1941       C  0.98667306  0.42317365  0.67996733    -0.20900
C1942       C  0.97665824  0.39342514  0.66844628    -0.07500
C1943       C  0.99223893  0.37811506  0.68456811     0.13400
C1944       C  0.01886678  0.39378805  0.70931703    -0.20900
C1945       C  0.02950713  0.42398954  0.71959722    -0.07500
C1946       C  0.01273627  0.43852739  0.70563653     0.13400
C1947       C  0.02308662  0.47074847  0.71650478    -0.24300
H1948       H  0.97375177  0.43429480  0.66930159     0.14700
H1949       H  0.03240164  0.38306211  0.71856459     0.14700
C1950       C  0.98133926  0.34567014  0.67437306    -0.24200
H1951       H  0.00686157  0.47837541  0.70427260     0.04900
H1952       H  0.04588241  0.48642454  0.70128955     0.08200
H1953       H  0.02463530  0.47229851  0.75267895     0.08200
H1954       H  0.98068124  0.34391318  0.63824489     0.08100
H1955       H  0.95803422  0.33061517  0.68847470     0.08100
H1956       H  0.99668706  0.33741898  0.68833818     0.04900
C1957       C  0.86311776  0.34415996  0.85778313    -0.20900
C1958       C  0.84609332  0.35668744  0.83724594    -0.07500
C1959       C  0.83043405  0.36658900  0.86387793     0.13400
C1960       C  0.83192531  0.36338397  0.90979927    -0.20900
C1961       C  0.84876337  0.35073154  0.93011080    -0.07500
C1962       C  0.86455210  0.34093639  0.90373390     0.13400
C1963       C  0.88180817  0.32592069  0.92371233    -0.24300
H1964       H  0.87511747  0.33640573  0.83767622     0.14700
H1965       H  0.81991043  0.37099296  0.93016546     0.14700
C1966       C  0.81280997  0.38129959  0.84447520    -0.24200
H1967       H  0.89164142  0.31842514  0.89820605     0.04900
H1968       H  0.86606214  0.30556614  0.94485519     0.08200
H1969       H  0.90100942  0.34206117  0.94363385     0.08200
H1970       H  0.79272334  0.36442520  0.82682153     0.08100
H1971       H  0.82777103  0.40093615  0.82160332     0.08100
H1972       H  0.80414723  0.38980534  0.87018363     0.04900
C1973       C  0.86767621  0.38207566  0.35786126    -0.20900
C1974       C  0.84279773  0.35878877  0.33680728    -0.07500
C1975       C  0.82071169  0.33317864  0.36209208     0.13400
C1976       C  0.82393358  0.33167115  0.40773156    -0.20900
C1977       C  0.84884266  0.35487663  0.42891541    -0.07500
C1978       C  0.87099392  0.38053878  0.40357312     0.13400
C1979       C  0.89772419  0.40664873  0.42424932    -0.24300
H1980       H  0.88482034  0.40152265  0.33822464     0.14700
H1981       H  0.80695993  0.31193143  0.42708171     0.14700
C1982       C  0.79445549  0.30678741  0.34118648    -0.24200
H1983       H  0.91174069  0.42542710  0.39955327     0.04900
H1984       H  0.91288469  0.39877961  0.43989258     0.08200
H1985       H  0.88936148  0.41596002  0.44916613     0.08200
H1986       H  0.80333234  0.29752273  0.31692703     0.08100
H1987       H  0.77937654  0.31440424  0.32466583     0.08100
H1988       H  0.78027095  0.28805696  0.36584197     0.04900
C1989       C  0.89423201  0.26629984  0.01572269    -0.20900
C1990       C  0.89592774  0.26847901  0.06152929    -0.07500
C1991       C  0.91252998  0.25698581  0.08598048     0.13400
C1992       C  0.92790534  0.24468178  0.06394803    -0.20900
C1993       C  0.92678348  0.24305455  0.01794853    -0.07500
C1994       C  0.90906646  0.25345800  0.99370277     0.13400
C1995       C  0.90682575  0.25243731  0.94447351    -0.24300
H1996       H  0.88168599  0.27534549  0.99691862     0.14700
H1997       H  0.94120782  0.23653193  0.08279369     0.14700
C1998       C  0.91523772  0.25898212  0.13503379    -0.24200
H1999       H  0.89330925  0.26288957  0.93068911     0.04900
H2000       H  0.89527700  0.22846872  0.93531975     0.08200
H2001       H  0.93008051  0.26506989  0.92929350     0.08200
H2002       H  0.89218431  0.24574973  0.15070614     0.08100
H2003       H  0.92572561  0.28310204  0.14326681     0.08100
H2004       H  0.92970422  0.24968258  0.14903439     0.04900
C2005       C  0.74521981  0.40794679  0.13710146    -0.20900
C2006       C  0.77574330  0.42687435  0.14916486    -0.07500
C2007       C  0.78685585  0.45853847  0.15023929     0.13400
C2008       C  0.76748269  0.47048003  0.13818378    -0.20900
C2009       C  0.73756545  0.45170943  0.12379578    -0.07500
C2010       C  0.72609375  0.42000289  0.12429510     0.13400
C2011       C  0.69348996  0.39886861  0.11177035    -0.24300
H2012       H  0.73666350  0.38372781  0.13593036     0.14700
H2013       H  0.77578579  0.49463200  0.13962392     0.14700
C2014       C  0.81891847  0.47969183  0.16494816    -0.24200
H2015       H  0.68780654  0.37467216  0.11501711     0.04900
H2016       H  0.68982042  0.40440446  0.07717686     0.08200
H2017       H  0.67760225  0.40152653  0.13340333     0.08200
H2018       H  0.83595567  0.48023781  0.14182741     0.08100
H2019       H  0.82240928  0.47188657  0.19831641     0.08100
H2020       H  0.82326427  0.50334990  0.16624388     0.04900
C2021       C  0.66390770  0.22326000  0.16121035    -0.20900
C2022       C  0.64390826  0.23455622  0.16916593    -0.07500
C2023       C  0.65616190  0.26646124  0.16984826     0.13400
C2024       C  0.68739234  0.28585517  0.16058481    -0.20900
C2025       C  0.70633496  0.27432973  0.14925452    -0.07500
C2026       C  0.69479114  0.24277018  0.15041451     0.13400
C2027       C  0.71498865  0.22971810  0.14011266    -0.24300
H2028       H  0.65498478  0.19892602  0.16108030     0.14700
H2029       H  0.69701147  0.31029379  0.16092123     0.14700
C2030       C  0.63657659  0.28055777  0.17776656    -0.24200
H2031       H  0.70222977  0.20444794  0.14257626     0.04900
H2032       H  0.73420210  0.23749890  0.16355883     0.08200
H2033       H  0.72430279  0.23738433  0.10612802     0.08200
H2034       H  0.61925927  0.27462427  0.15160618     0.08100
H2035       H  0.62513862  0.27231107  0.21047875     0.08100
H2036       H  0.65024381  0.30578100  0.17709458     0.04900
C2037       C  0.98355589  0.42064782  0.18004196    -0.20900
C2038       C  0.97299641  0.39002356  0.17314382    -0.07500
C2039       C  0.98684849  0.37477424  0.19571628     0.13400
C2040       C  0.01253439  0.39122332  0.22195982    -0.20900
C2041       C  0.02390446  0.42227586  0.22736789    -0.07500
C2042       C  0.00841498  0.43675674  0.20744564     0.13400
C2043       C  0.01906189  0.46977438  0.21377142    -0.24300
H2044       H  0.97206401  0.43194623  0.16425335     0.14700
H2045       H  0.02502871  0.38036683  0.23576843     0.14700
C2046       C  0.97532335  0.34149596  0.19053417    -0.24200
H2047       H  0.00379050  0.47726888  0.19729937     0.04900
H2048       H  0.04249711  0.48445843  0.19994015     0.08200
H2049       H  0.01917455  0.47315815  0.24936815     0.08200
H2050       H  0.97595491  0.33759163  0.15527864     0.08100
H2051       H  0.95144694  0.32776148  0.20324596     0.08100
H2052       H  0.98950847  0.33339661  0.20887535     0.04900
loop_ 
_geom_bond_atom_site_label_1 
_geom_bond_atom_site_label_2 
_geom_bond_distance 
_geom_bond_site_symmetry_2 
_ccdc_geom_bond_type 
Zr1           O2   2.443       .  S
Zr1           O3   2.487       .  S
Zr1           O4   2.458       .  S
Zr1           O7   2.397       .  S
Zr1           O9   2.369       .  S
Zr1          O10   2.381       .  S
Zr1          O11   2.428       .  S
Zr1          O12   2.418       .  S
O2           H58   0.990       .  S
O2           H66   0.989       .  S
O3           C23   1.292       .  A
O4           C25   1.286       .  A
O5          Zr15   2.450       .  S
O5           C24   1.287       .  A
O6          Zr14   2.401       .  S
O6           C25   1.276       .  A
O7           C24   1.276       .  A
O8          Zr16   2.410       .  S
O8           C23   1.279       .  A
O9          Zr14   2.393       .  S
O9          Zr16   2.381       .  S
O10         Zr15   2.373       .  S
O10         Zr16   2.391       .  S
O10          H45   0.964       .  S
O11         Zr14   2.400       .  S
O11         Zr31   2.429       .  S
O11          H48   0.964       .  S
O12         Zr15   2.377       .  S
O12         Zr31   2.401       .  S
Zr13         O38   2.436       .  S
Zr13         O32   2.414       .  S
Zr13         O40   2.450   1_554  S
Zr13         O28   2.477       .  S
Zr13         O19   2.395       .  S
Zr13         O20   2.415       .  S
Zr13         O21   2.381       .  S
Zr13         O22   2.397       .  S
Zr14         O33   2.444       .  S
Zr14         O26   2.435       .  S
Zr14         O27   2.395       .  S
Zr14         O20   2.405       .  S
Zr14         O21   2.393       .  S
Zr15         O17   2.436       .  S
Zr15         O39   2.439       .  S
Zr15         O41   2.415   1_554  S
Zr15         O19   2.402       .  S
Zr15         O22   2.386       .  S
Zr16         O42   2.434       .  S
Zr16         O43   2.436       .  S
Zr16         O18   2.440       .  S
Zr16         O19   2.395       .  S
Zr16         O20   2.394       .  S
O17          H54   0.990       .  S
O18          H49   0.990       .  S
O18          H63   0.990       .  S
O20          H46   0.965       .  S
O21         Zr31   2.345       .  S
O22         Zr31   2.377       .  S
O22          H47   0.966       .  S
C23        C2006   1.488       .  S
C24        C2025   1.459       .  S
C25        C1974   1.476       .  S
O26          H62   0.990       .  S
O27          C29   1.266       .  A
O28          C29   1.284       .  A
C29        C2038   1.473       .  S
O30         Zr31   2.439       .  S
O30          H59   0.990       .  S
Zr31         O34   2.437       .  S
Zr31         O35   2.437       .  S
Zr31         O36   2.477       .  S
O32          C37   1.281       .  A
O33          H50   0.990       .  S
O33          H65   0.990       .  S
O34          H51   0.990       .  S
O35          H55   0.990       .  S
O35          H64   0.989       .  S
O36          C37   1.292       .  A
C37        C1990   1.489       .  S
O38          H57   0.990       .  S
O38          H61   0.990       .  S
O39          H53   0.990       .  S
O39          H60   0.990       .  S
O40          C44   1.289       .  A
O41          C44   1.283       .  A
O42          H52   0.990       .  S
O43          H56   0.990       .  S
C44        C1961   1.482       .  S
Zr67         O68   2.442       .  S
Zr67         O69   2.479       .  S
Zr67         O70   2.478       .  S
Zr67         O73   2.411       .  S
Zr67         O75   2.373       .  S
Zr67         O76   2.386       .  S
Zr67         O77   2.420       .  S
Zr67         O78   2.425       .  S
O68         H124   0.990       .  S
O68         H132   0.990       .  S
O69          C89   1.290       .  A
O70          C91   1.289       .  A
O71         Zr81   2.442       .  S
O71          C90   1.287       .  A
O72         Zr80   2.407       .  S
O72          C91   1.278       .  A
O73          C90   1.279       .  A
O74         Zr82   2.398       .  S
O74          C89   1.278       .  A
O75         Zr80   2.392       .  S
O75         Zr82   2.394       .  S
O76         Zr81   2.367       .  S
O76         Zr82   2.385       .  S
O76         H111   0.965       .  S
O77         Zr80   2.404       .  S
O77         Zr97   2.429       .  S
O77         H114   0.965       .  S
O78         Zr81   2.380       .  S
O78         Zr97   2.403       .  S
Zr79        O104   2.437       .  S
Zr79         O98   2.415       .  S
Zr79        O106   2.453       .  S
Zr79         O94   2.475       .  S
Zr79         O85   2.397       .  S
Zr79         O86   2.410       .  S
Zr79         O87   2.378       .  S
Zr79         O88   2.395       .  S
Zr80         O99   2.443       .  S
Zr80         O92   2.437       .  S
Zr80         O93   2.397       .  S
Zr80         O86   2.401       .  S
Zr80         O87   2.397       .  S
Zr81         O83   2.435       .  S
Zr81        O105   2.437       .  S
Zr81        O107   2.406       .  S
Zr81         O85   2.398       .  S
Zr81         O88   2.384       .  S
Zr82        O108   2.436       .  S
Zr82        O109   2.437       .  S
Zr82         O84   2.435       .  S
Zr82         O85   2.377       .  S
Zr82         O86   2.395       .  S
O83         H120   0.990       .  S
O84         H115   0.991       .  S
O84         H129   0.990       .  S
O86         H112   0.966       .  S
O87         Zr97   2.352       .  S
O88         Zr97   2.369       .  S
O88         H113   0.966       .  S
C89        C1910   1.503       .  S
C90        C1926   1.472       .  S
C91        C1958   1.491       .  S
O92         H128   0.990       .  S
O93          C95   1.267       .  A
O94          C95   1.285       .  A
C95        C1942   1.469       .  S
O96         Zr97   2.438       .  S
O96         H125   0.990       .  S
Zr97        O100   2.437       .  S
Zr97        O101   2.440       .  S
Zr97        O102   2.472       .  S
O98         C103   1.281       .  A
O99         H116   0.990       .  S
O99         H131   0.990       .  S
O100        H117   0.990       .  S
O101        H121   0.990       .  S
O101        H130   0.989       .  S
O102        C103   1.291       .  A
C103       C1894   1.493       .  S
O104        H123   0.990       .  S
O104        H127   0.990       .  S
O105        H119   0.990       .  S
O105        H126   0.990       .  S
O106        C110   1.289       .  A
O107        C110   1.281       .  A
O108        H118   0.990       .  S
O109        H122   0.991       .  S
C110       C1977   1.480       .  S
Zr133       O134   2.444       .  S
Zr133       O135   2.460       .  S
Zr133       O136   2.429       .  S
Zr133       O139   2.383       .  S
Zr133       O141   2.369       .  S
Zr133       O142   2.380       .  S
Zr133       O143   2.408       .  S
Zr133       O144   2.411       .  S
O134        H190   0.990       .  S
O134        H198   0.990       .  S
O135        C155   1.288       .  A
O136        C157   1.280       .  A
O137       Zr147   2.484       .  S
O137        C156   1.294       .  A
O138       Zr146   2.415       .  S
O138        C157   1.280       .  A
O139        C156   1.275       .  A
O140       Zr148   2.380       .  S
O140        C155   1.276       .  A
O141       Zr146   2.381       .  S
O141       Zr148   2.382       .  S
O142       Zr147   2.366       .  S
O142       Zr148   2.389       .  S
O142        H177   0.966       .  S
O143       Zr146   2.387       .  S
O143       Zr163   2.420       .  S
O143        H180   0.965       .  S
O144       Zr147   2.381       .  S
O144       Zr163   2.410       .  S
Zr145       O170   2.443       .  S
Zr145       O164   2.411       .  S
Zr145       O172   2.430   1_554  S
Zr145       O160   2.461       .  S
Zr145       O151   2.398       .  S
Zr145       O152   2.397       .  S
Zr145       O153   2.372       .  S
Zr145       O154   2.393       .  S
Zr146       O165   2.439       .  S
Zr146       O158   2.435       .  S
Zr146       O159   2.374       .  S
Zr146       O152   2.396       .  S
Zr146       O153   2.392       .  S
Zr147       O149   2.434       .  S
Zr147       O171   2.439       .  S
Zr147       O173   2.428   1_554  S
Zr147       O151   2.409       .  S
Zr147       O154   2.391       .  S
Zr148       O174   2.435       .  S
Zr148       O175   2.436       .  S
Zr148       O150   2.437       .  S
Zr148       O151   2.381       .  S
Zr148       O152   2.382       .  S
O149        H186   0.990   1_554  S
O150        H181   0.990       .  S
O150        H195   0.990       .  S
O152        H178   0.966       .  S
O153       Zr163   2.359       .  S
O154       Zr163   2.364       .  S
O154        H179   0.966       .  S
C155       C2022   1.484       .  S
C156       C1846   1.498       .  S
C157       C1833   1.481       .  S
O158        H194   0.990       .  S
O159        C161   1.275       .  A
O160        C161   1.289       .  A
C161       C1865   1.463       .  S
O162       Zr163   2.438       .  S
O162        H191   0.991       .  S
Zr163       O166   2.437       .  S
Zr163       O167   2.438       .  S
Zr163       O168   2.475       .  S
O164        C169   1.281       .  A
O165        H182   0.990       .  S
O165        H197   0.990       .  S
O166        H183   0.990       .  S
O167        H187   0.990       .  S
O167        H196   0.990       .  S
O168        C169   1.292       .  A
C169       C1878   1.497       .  S
O170        H189   0.990   1_554  S
O170        H193   0.990       .  S
O171        H185   0.990   1_554  S
O171        H192   0.990       .  S
O172        C176   1.285       .  A
O173        C176   1.285       .  A
O174        H184   0.990       .  S
O175        H188   0.990       .  S
C176       C1817   1.481       .  S
Zr199       O200   2.442       .  S
Zr199       O201   2.454       .  S
Zr199       O202   2.433       .  S
Zr199       O205   2.378       .  S
Zr199       O207   2.371       .  S
Zr199       O208   2.379       .  S
Zr199       O209   2.410       .  S
Zr199       O210   2.416       .  S
O200        H256   0.990       .  S
O200        H264   0.990       .  S
O201        C221   1.286       .  A
O202        C223   1.280       .  A
O203       Zr213   2.460       .  S
O203        C222   1.289       .  A
O204       Zr212   2.413       .  S
O204        C223   1.277       .  A
O205        C222   1.273       .  A
O206       Zr214   2.393       .  S
O206        C221   1.278       .  A
O207       Zr212   2.375       .  S
O207       Zr214   2.386       .  S
O208       Zr213   2.379       .  S
O208       Zr214   2.386       .  S
O208        H243   0.966       .  S
O209       Zr212   2.400       .  S
O209       Zr229   2.434       .  S
O209        H246   0.966       .  S
O210       Zr213   2.382       .  S
O210       Zr229   2.408       .  S
Zr211       O236   2.436       .  S
Zr211       O230   2.391       .  S
Zr211       O238   2.426       .  S
Zr211       O226   2.463       .  S
Zr211       O217   2.390       .  S
Zr211       O218   2.400       .  S
Zr211       O219   2.357       .  S
Zr211       O220   2.391       .  S
Zr212       O231   2.446       .  S
Zr212       O224   2.437       .  S
Zr212       O225   2.380       .  S
Zr212       O218   2.390       .  S
Zr212       O219   2.382       .  S
Zr213       O215   2.436       .  S
Zr213       O237   2.437       .  S
Zr213       O239   2.424       .  S
Zr213       O217   2.398       .  S
Zr213       O220   2.382       .  S
Zr214       O240   2.436       .  S
Zr214       O241   2.436       .  S
Zr214       O216   2.437       .  S
Zr214       O217   2.377       .  S
Zr214       O218   2.398       .  S
O215        H252   0.990       .  S
O216        H247   0.990       .  S
O216        H261   0.990       .  S
O218        H244   0.966       .  S
O219       Zr229   2.341       .  S
O220       Zr229   2.366       .  S
O220        H245   0.965       .  S
C221       C1929   1.492       .  S
C222       C1766   1.469       .  S
C223       C1814   1.483       .  S
O224        H260   0.990       .  S
O225        C227   1.275       .  A
O226        C227   1.290       .  A
C227       C1782   1.480       .  S
O228       Zr229   2.438       .  S
O228        H257   0.990       .  S
Zr229       O232   2.437       .  S
Zr229       O233   2.438       .  S
Zr229       O234   2.501       .  S
O230        C235   1.276       .  A
O231        H248   0.990       .  S
O231        H263   0.991       .  S
O232        H249   0.991       .  S
O233        H253   0.990       .  S
O233        H262   0.990       .  S
O234        C235   1.298       .  A
C235       C1798   1.484       .  S
O236        H255   0.990       .  S
O236        H259   0.990       .  S
O237        H251   0.990       .  S
O237        H258   0.989       .  S
O238        C242   1.285       .  A
O239        C242   1.285       .  A
O240        H250   0.990       .  S
O241        H254   0.990       .  S
C242       C1830   1.473       .  S
Zr265       O266   2.442       .  S
Zr265       O267   2.509       .  S
Zr265       O268   2.485       .  S
Zr265       O271   2.410       .  S
Zr265       O273   2.374       .  S
Zr265       O274   2.390       .  S
Zr265       O275   2.420       .  S
Zr265       O276   2.428       .  S
O266        H322   0.990       .  S
O266        H330   0.990       .  S
O267        C287   1.297       .  A
O268        C289   1.293       .  A
O269       Zr279   2.483       .  S
O269        C288   1.292       .  A
O270       Zr278   2.404       .  S
O270        C289   1.277       .  A
O271        C288   1.277       .  A
O272       Zr280   2.374       .  S
O272        C287   1.274       .  A
O273       Zr278   2.386       .  S
O273       Zr280   2.381       .  S
O274       Zr279   2.365       .  S
O274       Zr280   2.391       .  S
O274        H309   0.964       .  S
O275       Zr278   2.393       .  S
O275       Zr295   2.423       .  S
O275        H312   0.964       .  S
O276       Zr279   2.380       .  S
O276       Zr295   2.410       .  S
Zr277       O302   2.435   1_554  S
Zr277       O296   2.408       .  S
Zr277       O304   2.465   1_554  S
Zr277       O292   2.504       .  S
Zr277       O283   2.402       .  S
Zr277       O284   2.411       .  S
Zr277       O285   2.379       .  S
Zr277       O286   2.406       .  S
Zr278       O297   2.439       .  S
Zr278       O290   2.435       .  S
Zr278       O291   2.386       .  S
Zr278       O284   2.406       .  S
Zr278       O285   2.393       .  S
Zr279       O281   2.435       .  S
Zr279       O303   2.438   1_554  S
Zr279       O305   2.431   1_554  S
Zr279       O283   2.400       .  S
Zr279       O286   2.386       .  S
Zr280       O306   2.434       .  S
Zr280       O307   2.436       .  S
Zr280       O282   2.439       .  S
Zr280       O283   2.377       .  S
Zr280       O284   2.375       .  S
O281        H318   0.990       .  S
O282        H313   0.991       .  S
O282        H327   0.990       .  S
O284        H310   0.967       .  S
O285       Zr295   2.355       .  S
O286       Zr295   2.372       .  S
O286        H311   0.966       .  S
C287       C1849   1.499       .  S
C288       C2009   1.483       .  S
C289       C1718   1.501       .  S
O290        H326   0.990       .  S
O291        C293   1.267       .  A
O292        C293   1.292       .  A
C293       C1734   1.505       .  S
O294       Zr295   2.439       .  S
O294        H323   0.990       .  S
Zr295       O298   2.437       .  S
Zr295       O299   2.437       .  S
Zr295       O300   2.477       .  S
O296        C301   1.281       .  A
O297        H314   0.990       .  S
O297        H329   0.990       .  S
O298        H315   0.990       .  S
O299        H319   0.989       .  S
O299        H328   0.990       .  S
O300        C301   1.293       .  A
C301       C1750   1.491   1_554  S
O302        H321   0.990   1_556  S
O302        H325   0.990       .  S
O303        H317   0.990       .  S
O303        H324   0.990   1_556  S
O304        C308   1.294       .  A
O305        C308   1.285       .  A
O306        H316   0.990       .  S
O307        H320   0.990       .  S
C308       C1702   1.495       .  S
Zr331       O332   2.445       .  S
Zr331       O333   2.471       .  S
Zr331       O334   2.464       .  S
Zr331       O337   2.409       .  S
Zr331       O339   2.375       .  S
Zr331       O340   2.383       .  S
Zr331       O341   2.413       .  S
Zr331       O342   2.423       .  S
O332        H388   0.990       .  S
O332        H396   0.990       .  S
O333        C353   1.289       .  A
O334        C355   1.288       .  A
O335       Zr345   2.462       .  S
O335        C354   1.290       .  A
O336       Zr344   2.411       .  S
O336        C355   1.278       .  A
O337        C354   1.279       .  A
O338       Zr346   2.370       .  S
O338        C353   1.274       .  A
O339       Zr344   2.389       .  S
O339       Zr346   2.389       .  S
O340       Zr345   2.375       .  S
O340       Zr346   2.385       .  S
O340        H375   0.965       .  S
O341       Zr344   2.396       .  S
O341       Zr361   2.428       .  S
O341        H378   0.964       .  S
O342       Zr345   2.382       .  S
O342       Zr361   2.407       .  S
Zr343       O368   2.434       .  S
Zr343       O362   2.399       .  S
Zr343       O370   2.472       .  S
Zr343       O358   2.505       .  S
Zr343       O349   2.400       .  S
Zr343       O350   2.408       .  S
Zr343       O351   2.382       .  S
Zr343       O352   2.399       .  S
Zr344       O363   2.439       .  S
Zr344       O356   2.434       .  S
Zr344       O357   2.383       .  S
Zr344       O350   2.411       .  S
Zr344       O351   2.396       .  S
Zr345       O347   2.434       .  S
Zr345       O369   2.440       .  S
Zr345       O371   2.423       .  S
Zr345       O349   2.395       .  S
Zr345       O352   2.387       .  S
Zr346       O372   2.436       .  S
Zr346       O373   2.436       .  S
Zr346       O348   2.437       .  S
Zr346       O349   2.372       .  S
Zr346       O350   2.369       .  S
O347        H384   0.990       .  S
O348        H379   0.990       .  S
O348        H393   0.990       .  S
O350        H376   0.966       .  S
O351       Zr361   2.359       .  S
O352       Zr361   2.366       .  S
O352        H377   0.966       .  S
C353       C1769   1.486       .  S
C354       C1913   1.484       .  S
C355       C1705   1.493       .  S
O356        H392   0.990       .  S
O357        C359   1.264       .  A
O358        C359   1.291       .  A
C359       C1670   1.505       .  S
O360       Zr361   2.439       .  S
O360        H389   0.991       .  S
Zr361       O364   2.437       .  S
Zr361       O365   2.440       .  S
Zr361       O366   2.481       .  S
O362        C367   1.279       .  A
O363        H380   0.990       .  S
O363        H395   0.990       .  S
O364        H381   0.990       .  S
O365        H385   0.989       .  S
O365        H394   0.990       .  S
O366        C367   1.293       .  A
C367       C1686   1.490       .  S
O368        H387   0.990       .  S
O368        H391   0.990       .  S
O369        H383   0.990       .  S
O369        H390   0.990       .  S
O370        C374   1.296       .  A
O371        C374   1.283       .  A
O372        H382   0.990       .  S
O373        H386   0.991       .  S
C374       C1721   1.501       .  S
Zr397       O398   2.441       .  S
Zr397       O399   2.472       .  S
Zr397       O400   2.428       .  S
Zr397       O403   2.373       .  S
Zr397       O405   2.368       .  S
Zr397       O406   2.374       .  S
Zr397       O407   2.416       .  S
Zr397       O408   2.415       .  S
O398        H454   0.990       .  S
O398        H462   0.990       .  S
O399        C419   1.290       .  A
O400        C421   1.280       .  A
O401       Zr411   2.463       .  S
O401        C420   1.289       .  A
O402       Zr410   2.427       .  S
O402        C421   1.282       .  A
O403        C420   1.273       .  A
O404       Zr412   2.403       .  S
O404        C419   1.278       .  A
O405       Zr410   2.389       .  S
O405       Zr412   2.391       .  S
O406       Zr411   2.379       .  S
O406       Zr412   2.386       .  S
O406        H441   0.965       .  S
O407       Zr410   2.392       .  S
O407       Zr427   2.429       .  S
O407        H444   0.965       .  S
O408       Zr411   2.371       .  S
O408       Zr427   2.408       .  S
Zr409       O434   2.438       .  S
Zr409       O428   2.402       .  S
Zr409       O436   2.445       .  S
Zr409       O424   2.459       .  S
Zr409       O415   2.392       .  S
Zr409       O416   2.421       .  S
Zr409       O417   2.387       .  S
Zr409       O418   2.396       .  S
Zr410       O429   2.444       .  S
Zr410       O422   2.436       .  S
Zr410       O423   2.391       .  S
Zr410       O416   2.415       .  S
Zr410       O417   2.403       .  S
Zr411       O413   2.435       .  S
Zr411       O435   2.438       .  S
Zr411       O437   2.411       .  S
Zr411       O415   2.409       .  S
Zr411       O418   2.396       .  S
Zr412       O438   2.436       .  S
Zr412       O439   2.436       .  S
Zr412       O414   2.437       .  S
Zr412       O415   2.381       .  S
Zr412       O416   2.387       .  S
O413        H450   0.990       .  S
O414        H445   0.990       .  S
O414        H459   0.990       .  S
O416        H442   0.966       .  S
O417       Zr427   2.350       .  S
O418       Zr427   2.373       .  S
O418        H443   0.965       .  S
C419       C1657   1.477       .  S
C420       C1638   1.473       .  S
C421       C1606   1.487       .  S
O422        H458   0.990       .  S
O423        C425   1.265       .  A
O424        C425   1.280       .  A
C425       C1862   1.470       .  S
O426       Zr427   2.440       .  S
O426        H455   0.989       .  S
Zr427       O430   2.437       .  S
Zr427       O431   2.437       .  S
Zr427       O432   2.488       .  S
O428        C433   1.277       .  A
O429        H446   0.990       .  S
O429        H461   0.990       .  S
O430        H447   0.990       .  S
O431        H451   0.990       .  S
O431        H460   0.990       .  S
O432        C433   1.294       .  A
C433       C1622   1.492       .  S
O434        H453   0.990       .  S
O434        H457   0.990       .  S
O435        H449   0.990       .  S
O435        H456   0.990       .  S
O436        C440   1.288       .  A
O437        C440   1.282       .  A
O438        H448   0.990       .  S
O439        H452   0.990       .  S
C440       C1593   1.479       .  S
Zr463       O464   2.441       .  S
Zr463       O465   2.478       .  S
Zr463       O466   2.451       .  S
Zr463       O469   2.388       .  S
Zr463       O471   2.368       .  S
Zr463       O472   2.392       .  S
Zr463       O473   2.415       .  S
Zr463       O474   2.421       .  S
O464        H520   0.990       .  S
O464        H528   0.990       .  S
O465        C485   1.291       .  A
O466        C487   1.285       .  A
O467       Zr477   2.486       .  S
O467        C486   1.287       .  A
O468       Zr476   2.400       .  S
O468        C487   1.276       .  A
O469        C486   1.269       .  A
O470       Zr478   2.392       .  S
O470        C485   1.278       .  A
O471       Zr476   2.375       .  S
O471       Zr478   2.383       .  S
O472       Zr477   2.379       .  S
O472       Zr478   2.385       .  S
O472        H507   0.964       .  S
O473       Zr476   2.372       .  S
O473       Zr493   2.438       .  S
O473        H510   0.966       .  S
O474       Zr477   2.382       .  S
O474       Zr493   2.407       .  S
Zr475       O500   2.442       .  S
Zr475       O494   2.413       .  S
Zr475       O502   2.440       .  S
Zr475       O490   2.478       .  S
Zr475       O481   2.401       .  S
Zr475       O482   2.399       .  S
Zr475       O483   2.374       .  S
Zr475       O484   2.397       .  S
Zr476       O495   2.440       .  S
Zr476       O488   2.438       .  S
Zr476       O489   2.345       .  S
Zr476       O482   2.392       .  S
Zr476       O483   2.388       .  S
Zr477       O479   2.435       .  S
Zr477       O501   2.436       .  S
Zr477       O503   2.426       .  S
Zr477       O481   2.407       .  S
Zr477       O484   2.403       .  S
Zr478       O504   2.435       .  S
Zr478       O505   2.436       .  S
Zr478       O480   2.436       .  S
Zr478       O481   2.379       .  S
Zr478       O482   2.388       .  S
O479        H516   0.990       .  S
O480        H511   0.990       .  S
O480        H525   0.990       .  S
O482        H508   0.966       .  S
O483       Zr493   2.355       .  S
O484       Zr493   2.372       .  S
O484        H509   0.965       .  S
C485       C1574   1.491       .  S
C486       C1558   1.497       .  S
C487       C1590   1.480       .  S
O488        H524   0.990       .  S
O489        C491   1.270       .  A
O490        C491   1.292       .  A
C491       C1785   1.490       .  S
O492       Zr493   2.439       .  S
O492        H521   0.990       .  S
Zr493       O496   2.438       .  S
Zr493       O497   2.438       .  S
Zr493       O498   2.492       .  S
O494        C499   1.280       .  A
O495        H512   0.990       .  S
O495        H527   0.990       .  S
O496        H513   0.990       .  S
O497        H517   0.990       .  S
O497        H526   0.990       .  S
O498        C499   1.295       .  A
C499       C1545   1.494       .  S
O500        H519   0.990       .  S
O500        H523   0.990       .  S
O501        H515   0.990       .  S
O501        H522   0.990       .  S
O502        C506   1.287       .  A
O503        C506   1.285       .  A
O504        H514   0.990       .  S
O505        H518   0.989       .  S
C506       C1609   1.482       .  S
Zr529       O530   2.443       .  S
Zr529       O531   2.451       .  S
Zr529       O532   2.432       .  S
Zr529       O535   2.379       .  S
Zr529       O537   2.367       .  S
Zr529       O538   2.392       .  S
Zr529       O539   2.409       .  S
Zr529       O540   2.419       .  S
O530        H586   0.990       .  S
O530        H594   0.990       .  S
O531        C551   1.282       .  A
O532        C553   1.281       .  A
O533       Zr543   2.484       .  S
O533        C552   1.294       .  A
O534       Zr542   2.400       .  S
O534        C553   1.278       .  A
O535        C552   1.275       .  A
O536       Zr544   2.396       .  S
O536        C551   1.270       .  A
O537       Zr542   2.375       .  S
O537       Zr544   2.382       .  S
O538       Zr543   2.362       .  S
O538       Zr544   2.388       .  S
O538        H573   0.964       .  S
O539       Zr542   2.379       .  S
O539       Zr559   2.426       .  S
O539        H576   0.966       .  S
O540       Zr543   2.380       .  S
O540       Zr559   2.412       .  S
Zr541       O566   2.437       .  S
Zr541       O560   2.407       .  S
Zr541       O568   2.435       .  S
Zr541       O556   2.492       .  S
Zr541       O547   2.404       .  S
Zr541       O548   2.390       .  S
Zr541       O549   2.371       .  S
Zr541       O550   2.398       .  S
Zr542       O561   2.437       .  S
Zr542       O554   2.435       .  S
Zr542       O555   2.354       .  S
Zr542       O548   2.401       .  S
Zr542       O549   2.386       .  S
Zr543       O545   2.435       .  S
Zr543       O567   2.440       .  S
Zr543       O569   2.404       .  S
Zr543       O547   2.417       .  S
Zr543       O550   2.393       .  S
Zr544       O570   2.436       .  S
Zr544       O571   2.435       .  S
Zr544       O546   2.436       .  S
Zr544       O547   2.383       .  S
Zr544       O548   2.385       .  S
O545        H582   0.990       .  S
O546        H577   0.990       .  S
O546        H591   0.990       .  S
O548        H574   0.967       .  S
O549       Zr559   2.366       .  S
O550       Zr559   2.358       .  S
O550        H575   0.965       .  S
C551       C1641   1.492       .  S
C552       C1513   1.494       .  S
C553       C1494   1.478       .  S
O554        H590   0.990       .  S
O555        C557   1.270       .  A
O556        C557   1.295       .  A
C557       C2041   1.468       .  S
O558       Zr559   2.438       .  S
O558        H587   0.990       .  S
Zr559       O562   2.438       .  S
Zr559       O563   2.439       .  S
Zr559       O564   2.477       .  S
O560        C565   1.280       .  A
O561        H578   0.990       .  S
O561        H593   0.990       .  S
O562        H579   0.990       .  S
O563        H583   0.990       .  S
O563        H592   0.990       .  S
O564        C565   1.292       .  A
C565       C1529   1.501       .  S
O566        H585   0.990       .  S
O566        H589   0.990       .  S
O567        H581   0.990       .  S
O567        H588   0.990       .  S
O568        C572   1.287       .  A
O569        C572   1.281       .  A
O570        H580   0.990       .  S
O571        H584   0.990       .  S
C572       C1481   1.468       .  S
Zr595       O596   2.440       .  S
Zr595       O597   2.454       .  S
Zr595       O598   2.454       .  S
Zr595       O601   2.392       .  S
Zr595       O603   2.379       .  S
Zr595       O604   2.405       .  S
Zr595       O605   2.414       .  S
Zr595       O606   2.416       .  S
O596        H652   0.990       .  S
O596        H660   0.990       .  S
O597        C617   1.280       .  A
O598        C619   1.285       .  A
O599       Zr609   2.503       .  S
O599        C618   1.295       .  A
O600       Zr608   2.379       .  S
O600        C619   1.274       .  A
O601        C618   1.275       .  A
O602       Zr610   2.406       .  S
O602        C617   1.270       .  A
O603       Zr608   2.380       .  S
O603       Zr610   2.380       .  S
O604       Zr609   2.357       .  S
O604       Zr610   2.389       .  S
O604        H639   0.962       .  S
O605       Zr608   2.384       .  S
O605       Zr625   2.427       .  S
O605        H642   0.966       .  S
O606       Zr609   2.382       .  S
O606       Zr625   2.409       .  S
Zr607       O632   2.438       .  S
Zr607       O626   2.409       .  S
Zr607       O634   2.429       .  S
Zr607       O622   2.487       .  S
Zr607       O613   2.409       .  S
Zr607       O614   2.391       .  S
Zr607       O615   2.372       .  S
Zr607       O616   2.399       .  S
Zr608       O627   2.436       .  S
Zr608       O620   2.436       .  S
Zr608       O621   2.362       .  S
Zr608       O614   2.393       .  S
Zr608       O615   2.388       .  S
Zr609       O611   2.436       .  S
Zr609       O633   2.440       .  S
Zr609       O635   2.426       .  S
Zr609       O613   2.419       .  S
Zr609       O616   2.401       .  S
Zr610       O636   2.435       .  S
Zr610       O637   2.436       .  S
Zr610       O612   2.435       .  S
Zr610       O613   2.392       .  S
Zr610       O614   2.385       .  S
O611        H648   0.990       .  S
O612        H643   0.990       .  S
O612        H657   0.990       .  S
O614        H640   0.965       .  S
O615       Zr625   2.365       .  S
O616       Zr625   2.365       .  S
O616        H641   0.966       .  S
C617       C1561   1.478       .  S
C618       C1446   1.497       .  S
C619       C1478   1.473       .  S
O620        H656   0.990       .  S
O621        C623   1.271       .  A
O622        C623   1.293       .  A
C623       C1945   1.467       .  S
O624       Zr625   2.435       .  S
O624        H653   0.990       .  S
Zr625       O628   2.435       .  S
Zr625       O629   2.437       .  S
Zr625       O630   2.481       .  S
O626        C631   1.279       .  A
O627        H644   0.990       .  S
O627        H659   0.990       .  S
O628        H645   0.990       .  S
O629        H649   0.990       .  S
O629        H658   0.989       .  S
O630        C631   1.293       .  A
C631       C1465   1.499       .  S
O632        H651   0.990       .  S
O632        H655   0.991       .  S
O633        H647   0.990       .  S
O633        H654   0.990       .  S
O634        C638   1.286       .  A
O635        C638   1.285       .  A
O636        H646   0.991       .  S
O637        H650   0.990       .  S
C638       C1497   1.475       .  S
Zr661       O662   2.442       .  S
Zr661       O663   2.491       .  S
Zr661       O664   2.470       .  S
Zr661       O667   2.420       .  S
Zr661       O669   2.380       .  S
Zr661       O670   2.388       .  S
Zr661       O671   2.427       .  S
Zr661       O672   2.421       .  S
O662        H718   0.990       .  S
O662        H726   0.989       .  S
O663        C683   1.293       .  A
O664        C685   1.289       .  A
O665       Zr675   2.459       .  S
O665        C684   1.287       .  A
O666       Zr674   2.404       .  S
O666        C685   1.276       .  A
O667        C684   1.279       .  A
O668       Zr676   2.383       .  S
O668        C683   1.275       .  A
O669       Zr674   2.388       .  S
O669       Zr676   2.383       .  S
O670       Zr675   2.368       .  S
O670       Zr676   2.387       .  S
O670        H705   0.964       .  S
O671       Zr674   2.403       .  S
O671       Zr691   2.423       .  S
O671        H708   0.965       .  S
O672       Zr675   2.383       .  S
O672       Zr691   2.413       .  S
Zr673       O698   2.438       .  S
Zr673       O692   2.410       .  S
Zr673       O700   2.464       .  S
Zr673       O688   2.483       .  S
Zr673       O679   2.394       .  S
Zr673       O680   2.411       .  S
Zr673       O681   2.382       .  S
Zr673       O682   2.397       .  S
Zr674       O693   2.446       .  S
Zr674       O686   2.438       .  S
Zr674       O687   2.394       .  S
Zr674       O680   2.397       .  S
Zr674       O681   2.400       .  S
Zr675       O677   2.436       .  S
Zr675       O699   2.440       .  S
Zr675       O701   2.411       .  S
Zr675       O679   2.402       .  S
Zr675       O682   2.392       .  S
Zr676       O702   2.434       .  S
Zr676       O703   2.435       .  S
Zr676       O678   2.438       .  S
Zr676       O679   2.381       .  S
Zr676       O680   2.377       .  S
O677        H714   0.990       .  S
O678        H709   0.990       .  S
O678        H723   0.990       .  S
O680        H706   0.963       .  S
O681       Zr691   2.356       .  S
O682       Zr691   2.378       .  S
O682        H707   0.965       .  S
C683       C1510   1.494       .  S
C684       C1654   1.482       .  S
C685       C1414   1.484       .  S
O686        H722   0.990       .  S
O687        C689   1.268       .  A
O688        C689   1.288       .  A
C689       C1737   1.495       .  S
O690       Zr691   2.438       .  S
O690        H719   0.990       .  S
Zr691       O694   2.438       .  S
Zr691       O695   2.437       .  S
Zr691       O696   2.471       .  S
O692        C697   1.280       .  A
O693        H710   0.990       .  S
O693        H725   0.990       .  S
O694        H711   0.990       .  S
O695        H715   0.990       .  S
O695        H724   0.990       .  S
O696        C697   1.290       .  A
C697       C1430   1.487       .  S
O698        H717   0.990       .  S
O698        H721   0.990       .  S
O699        H713   0.990       .  S
O699        H720   0.990       .  S
O700        C704   1.292       .  A
O701        C704   1.282       .  A
O702        H712   0.990       .  S
O703        H716   0.990       .  S
C704       C1401   1.487       .  S
Zr727       O728   2.441       .  S
Zr727       O729   2.497       .  S
Zr727       O730   2.461       .  S
Zr727       O733   2.401       .  S
Zr727       O735   2.377       .  S
Zr727       O736   2.375       .  S
Zr727       O737   2.421       .  S
Zr727       O738   2.425       .  S
O728        H784   0.990       .  S
O728        H792   0.990       .  S
O729        C749   1.297       .  A
O730        C751   1.288       .  A
O731       Zr741   2.462       .  S
O731        C750   1.289       .  A
O732       Zr740   2.411       .  S
O732        C751   1.279       .  A
O733        C750   1.277       .  A
O734       Zr742   2.398       .  S
O734        C749   1.277       .  A
O735       Zr740   2.390       .  S
O735       Zr742   2.389       .  S
O736       Zr741   2.366       .  S
O736       Zr742   2.384       .  S
O736        H771   0.963       .  S
O737       Zr740   2.395       .  S
O737       Zr757   2.420       .  S
O737        H774   0.965       .  S
O738       Zr741   2.377       .  S
O738       Zr757   2.415       .  S
Zr739       O764   2.438       .  S
Zr739       O758   2.420       .  S
Zr739       O766   2.472       .  S
Zr739       O754   2.492       .  S
Zr739       O745   2.399       .  S
Zr739       O746   2.415       .  S
Zr739       O747   2.384       .  S
Zr739       O748   2.401       .  S
Zr740       O759   2.443       .  S
Zr740       O752   2.436       .  S
Zr740       O753   2.394       .  S
Zr740       O746   2.399       .  S
Zr740       O747   2.402       .  S
Zr741       O743   2.435       .  S
Zr741       O765   2.439       .  S
Zr741       O767   2.410       .  S
Zr741       O745   2.406       .  S
Zr741       O748   2.392       .  S
Zr742       O768   2.434       .  S
Zr742       O769   2.435       .  S
Zr742       O744   2.437       .  S
Zr742       O745   2.383       .  S
Zr742       O746   2.383       .  S
O743        H780   0.990       .  S
O744        H775   0.990       .  S
O744        H789   0.990       .  S
O746        H772   0.964       .  S
O747       Zr757   2.353       .  S
O748       Zr757   2.375       .  S
O748        H773   0.965       .  S
C749       C1449   1.485       .  S
C750       C1577   1.473       .  S
C751       C1398   1.497       .  S
O752        H788   0.990       .  S
O753        C755   1.268       .  A
O754        C755   1.288       .  A
C755       C1673   1.497       .  S
O756       Zr757   2.438       .  S
O756        H785   0.990       .  S
Zr757       O760   2.438       .  S
Zr757       O761   2.437       .  S
Zr757       O762   2.478       .  S
O758        C763   1.281       .  A
O759        H776   0.990       .  S
O759        H791   0.990       .  S
O760        H777   0.990       .  S
O761        H781   0.990       .  S
O761        H790   0.990       .  S
O762        C763   1.292       .  A
C763       C1382   1.493       .  S
O764        H783   0.991       .  S
O764        H787   0.990       .  S
O765        H779   0.990       .  S
O765        H786   0.990       .  S
O766        C770   1.293       .  A
O767        C770   1.282       .  A
O768        H778   0.990       .  S
O769        H782   0.990       .  S
C770       C1417   1.492       .  S
Zr793       O794   2.442       .  S
Zr793       O795   2.458   1_545  S
Zr793       O796   2.503       .  S
Zr793       O799   2.469       .  S
Zr793       O801   2.382   1_545  S
Zr793       O802   2.398   1_545  S
Zr793       O803   2.418       .  S
Zr793       O804   2.406       .  S
O794        H850   0.991       .  S
O794        H858   0.990       .  S
O795        C815   1.288       .  A
O796        C817   1.296       .  A
O797       Zr807   2.413   1_545  S
O797        C816   1.282       .  A
O798       Zr806   2.377       .  S
O798        C817   1.274       .  A
O799        C816   1.293       .  A
O800       Zr808   2.443       .  S
O800        C815   1.285       .  A
O801       Zr806   2.399   1_565  S
O801       Zr808   2.378       .  S
O802       Zr807   2.387       .  S
O802       Zr808   2.373       .  S
O802        H837   0.967       .  S
O803       Zr806   2.395       .  S
O803       Zr823   2.398       .  S
O803        H840   0.967       .  S
O804       Zr807   2.407   1_545  S
O804       Zr823   2.384       .  S
Zr805       O830   2.438   1_546  S
Zr805       O824   2.481       .  S
Zr805       O832   2.413   1_545  S
Zr805       O820   2.470   1_556  S
Zr805       O811   2.416   1_545  S
Zr805       O812   2.411   1_546  S
Zr805       O813   2.379       .  S
Zr805       O814   2.385       .  S
Zr806       O825   2.437   1_556  S
Zr806       O818   2.435   1_556  S
Zr806       O819   2.403   1_556  S
Zr806       O812   2.379   1_546  S
Zr806       O813   2.388       .  S
Zr807       O809   2.437   1_565  S
Zr807       O831   2.434       .  S
Zr807       O833   2.462       .  S
Zr807       O811   2.383       .  S
Zr807       O814   2.361   1_565  S
Zr808       O834   2.435       .  S
Zr808       O835   2.434   1_556  S
Zr808       O810   2.436   1_556  S
Zr808       O811   2.403       .  S
Zr808       O812   2.402   1_556  S
O809        H846   0.990   1_545  S
O810        H841   0.990       .  S
O810        H855   0.990   1_554  S
O812        H838   0.975       .  S
O813       Zr823   2.385       .  S
O814       Zr823   2.383       .  S
O814        H839   0.965       .  S
C815       C1542   1.497       .  S
C816       C1321   1.485       .  S
C817       C1881   1.479       .  S
O818        H854   0.990   1_545  S
O819        C821   1.279       .  A
O820        C821   1.290       .  A
C821       C1334   1.496       .  S
O822       Zr823   2.439       .  S
O822        H851   0.990       .  S
Zr823       O826   2.436       .  S
Zr823       O827   2.439       .  S
Zr823       O828   2.414       .  S
O824        C829   1.292       .  A
O825        H842   0.990       .  S
O825        H857   0.990       .  S
O826        H843   0.990       .  S
O827        H847   0.990       .  S
O827        H856   0.990       .  S
O828        C829   1.281       .  A
C829       C1366   1.490       .  S
O830        H849   0.990       .  S
O830        H853   0.991       .  S
O831        H845   0.990       .  S
O831        H852   0.990       .  S
O832        C836   1.278       .  A
O833        C836   1.288       .  A
O834        H844   0.990       .  S
O835        H848   0.991       .  S
C836       C1350   1.481       .  S
Zr859       O860   2.440       .  S
Zr859       O861   2.446   1_545  S
Zr859       O862   2.496       .  S
Zr859       O865   2.457       .  S
Zr859       O867   2.389   1_545  S
Zr859       O868   2.401   1_545  S
Zr859       O869   2.422       .  S
Zr859       O870   2.407       .  S
O860        H916   0.991       .  S
O860        H924   0.990       .  S
O861        C881   1.287       .  A
O862        C883   1.285       .  A
O863       Zr873   2.416       .  S
O863        C882   1.284   1_565  A
O864       Zr872   2.388       .  S
O864        C883   1.267       .  A
O865        C882   1.291       .  A
O866       Zr874   2.465       .  S
O866        C881   1.290       .  A
O867       Zr872   2.404   1_565  S
O867       Zr874   2.366       .  S
O868       Zr873   2.382       .  S
O868       Zr874   2.368       .  S
O868        H903   0.965       .  S
O869       Zr872   2.401       .  S
O869       Zr889   2.396       .  S
O869        H906   0.966       .  S
O870       Zr873   2.411   1_545  S
O870       Zr889   2.388       .  S
Zr871       O896   2.443   1_545  S
Zr871       O890   2.481       .  S
Zr871       O898   2.407   1_545  S
Zr871       O886   2.468       .  S
Zr871       O877   2.424   1_545  S
Zr871       O878   2.415   1_545  S
Zr871       O879   2.374       .  S
Zr871       O880   2.384       .  S
Zr872       O891   2.438       .  S
Zr872       O884   2.435       .  S
Zr872       O885   2.403       .  S
Zr872       O878   2.394   1_545  S
Zr872       O879   2.389       .  S
Zr873       O875   2.435   1_565  S
Zr873       O897   2.436       .  S
Zr873       O899   2.468       .  S
Zr873       O877   2.389       .  S
Zr873       O880   2.366   1_565  S
Zr874       O900   2.435       .  S
Zr874       O901   2.435       .  S
Zr874       O876   2.436       .  S
Zr874       O877   2.408       .  S
Zr874       O878   2.419       .  S
O875        H912   0.990   1_545  S
O876        H907   0.990       .  S
O876        H921   0.990       .  S
O878        H904   0.964       .  S
O879       Zr889   2.383       .  S
O880       Zr889   2.387       .  S
O880        H905   0.964       .  S
C881       C1625   1.502       .  S
C882       C1337   1.489       .  S
C883       C1801   1.506       .  S
O884        H920   0.991       .  S
O885        C887   1.278       .  A
O886        C887   1.289       .  A
C887       C1318   1.491       .  S
O888       Zr889   2.436       .  S
O888        H917   0.990       .  S
Zr889       O892   2.438       .  S
Zr889       O893   2.437       .  S
Zr889       O894   2.399       .  S
O890        C895   1.292       .  A
O891        H908   0.990       .  S
O891        H923   0.990       .  S
O892        H909   0.990       .  S
O893        H913   0.990       .  S
O893        H922   0.990       .  S
O894        C895   1.278       .  A
C895       C1305   1.488       .  S
O896        H915   0.991       .  S
O896        H919   0.991       .  S
O897        H911   0.989       .  S
O897        H918   0.990       .  S
O898        C902   1.277       .  A
O899        C902   1.291       .  A
O900        H910   0.990       .  S
O901        H914   0.990       .  S
C902       C1286   1.482       .  S
Zr925       O926   2.439   1_556  S
Zr925       O927   2.443   1_456  S
Zr925       O928   2.513       .  S
Zr925       O931   2.487   1_556  S
Zr925       O933   2.387   1_455  S
Zr925       O934   2.403   1_455  S
Zr925       O935   2.410       .  S
Zr925       O936   2.400   1_556  S
O926        H982   0.990       .  S
O926        H990   0.990       .  S
O927        C947   1.286   1_554  A
O928        C949   1.299       .  A
O929       Zr939   2.426       .  S
O929        C948   1.284   1_655  A
O930       Zr938   2.366       .  S
O930        C949   1.272       .  A
O931        C948   1.296       .  A
O932       Zr940   2.459       .  S
O932        C947   1.288       .  A
O933       Zr938   2.405   1_655  S
O933       Zr940   2.374       .  S
O934       Zr939   2.385   1_556  S
O934       Zr940   2.374       .  S
O934        H969   0.965   1_556  S
O935       Zr938   2.406       .  S
O935       Zr955   2.391       .  S
O935        H972   0.966       .  S
O936       Zr939   2.405   1_455  S
O936       Zr955   2.375   1_554  S
Zr937       O962   2.441       .  S
Zr937       O956   2.490   1_655  S
Zr937       O964   2.403       .  S
Zr937       O952   2.473   1_655  S
Zr937       O943   2.428       .  S
Zr937       O944   2.414       .  S
Zr937       O945   2.371   1_655  S
Zr937       O946   2.384   1_655  S
Zr938       O957   2.434       .  S
Zr938       O950   2.435       .  S
Zr938       O951   2.429       .  S
Zr938       O944   2.377   1_455  S
Zr938       O945   2.386       .  S
Zr939       O941   2.436       .  S
Zr939       O963   2.436       .  S
Zr939       O965   2.462   1_554  S
Zr939       O943   2.387   1_554  S
Zr939       O946   2.371   1_654  S
Zr940       O966   2.435       .  S
Zr940       O967   2.436       .  S
Zr940       O942   2.437       .  S
Zr940       O943   2.415       .  S
Zr940       O944   2.409       .  S
O941        H978   0.990       .  S
O942        H973   0.990       .  S
O942        H987   0.990       .  S
O944        H970   0.965       .  S
O945       Zr955   2.390       .  S
O946       Zr955   2.387       .  S
O946        H971   0.965       .  S
C947       C1993   1.496   1_556  S
C948       C1254   1.498       .  S
C949       C1462   1.480       .  S
O950        H986   0.990   1_455  S
O951        C953   1.283       .  A
O952        C953   1.290       .  A
C953       C1238   1.496       .  S
O954       Zr955   2.438   1_554  S
O954        H983   0.990       .  S
Zr955       O958   2.437       .  S
Zr955       O959   2.439   1_556  S
Zr955       O960   2.390       .  S
O956        C961   1.293       .  A
O957        H974   0.990       .  S
O957        H989   0.990       .  S
O958        H975   0.990       .  S
O959        H979   0.990       .  S
O959        H988   0.990       .  S
O960        C961   1.276       .  A
C961       C1369   1.476       .  S
O962        H981   0.990       .  S
O962        H985   0.990       .  S
O963        H977   0.990       .  S
O963        H984   0.990       .  S
O964        C968   1.278       .  A
O965        C968   1.289       .  A
O966        H976   0.990       .  S
O967        H980   0.990       .  S
C968       C1270   1.497       .  S
Zr991       O992   2.439       .  S
Zr991       O993   2.430   1_455  S
Zr991       O994   2.502       .  S
Zr991       O997   2.468       .  S
Zr991       O999   2.383   1_455  S
Zr991      O1000   2.404   1_455  S
Zr991      O1001   2.402       .  S
Zr991      O1002   2.397       .  S
O992       H1048   0.990       .  S
O992       H1056   0.990       .  S
O993       C1013   1.282       .  A
O994       C1015   1.296       .  A
O995      Zr1005   2.438       .  S
O995       C1014   1.288   1_655  A
O996      Zr1004   2.367       .  S
O996       C1015   1.272       .  A
O997       C1014   1.292       .  A
O998      Zr1006   2.457       .  S
O998       C1013   1.287       .  A
O999      Zr1004   2.404   1_655  S
O999      Zr1006   2.375       .  S
O1000     Zr1005   2.397       .  S
O1000     Zr1006   2.370       .  S
O1000      H1035   0.966       .  S
O1001     Zr1004   2.397       .  S
O1001     Zr1021   2.381       .  S
O1001      H1038   0.965       .  S
O1002     Zr1005   2.405   1_455  S
O1002     Zr1021   2.371       .  S
Zr1003     O1028   2.443       .  S
Zr1003     O1022   2.485   1_655  S
Zr1003     O1030   2.416       .  S
Zr1003     O1018   2.468   1_655  S
Zr1003     O1009   2.426       .  S
Zr1003     O1010   2.413       .  S
Zr1003     O1011   2.376   1_655  S
Zr1003     O1012   2.384   1_655  S
Zr1004     O1023   2.436       .  S
Zr1004     O1016   2.435       .  S
Zr1004     O1017   2.412       .  S
Zr1004     O1010   2.385   1_455  S
Zr1004     O1011   2.383       .  S
Zr1005     O1007   2.435       .  S
Zr1005     O1029   2.437       .  S
Zr1005     O1031   2.477       .  S
Zr1005     O1009   2.392       .  S
Zr1005     O1012   2.376   1_655  S
Zr1006     O1032   2.435       .  S
Zr1006     O1033   2.435       .  S
Zr1006     O1008   2.438       .  S
Zr1006     O1009   2.416       .  S
Zr1006     O1010   2.406       .  S
O1007      H1044   0.990       .  S
O1008      H1039   0.990       .  S
O1008      H1053   0.990       .  S
O1010      H1036   0.964       .  S
O1011     Zr1021   2.388       .  S
O1012     Zr1021   2.391       .  S
O1012      H1037   0.965       .  S
C1013      C1897   1.490       .  S
C1014      C1241   1.496       .  S
C1015      C1526   1.477       .  S
O1016      H1052   0.990       .  S
O1017      C1019   1.279       .  A
O1018      C1019   1.290       .  A
C1019      C1257   1.489       .  S
O1020     Zr1021   2.439       .  S
O1020      H1049   0.990       .  S
Zr1021     O1024   2.437       .  S
Zr1021     O1025   2.439       .  S
Zr1021     O1026   2.372       .  S
O1022      C1027   1.293       .  A
O1023      H1040   0.990       .  S
O1023      H1055   0.990       .  S
O1024      H1041   0.990       .  S
O1025      H1045   0.990       .  S
O1025      H1054   0.990       .  S
O1026      C1027   1.273       .  A
C1027      C1302   1.471       .  S
O1028      H1047   0.990       .  S
O1028      H1051   0.991       .  S
O1029      H1043   0.990       .  S
O1029      H1050   0.990       .  S
O1030      C1034   1.280       .  A
O1031      C1034   1.292       .  A
O1032      H1042   0.990       .  S
O1033      H1046   0.990       .  S
C1034      C1225   1.511       .  S
Zr1057     O1058   2.441   1_556  S
Zr1057     O1059   2.480       .  S
Zr1057     O1060   2.458   1_556  S
Zr1057     O1063   2.408       .  S
Zr1057     O1065   2.369       .  S
Zr1057     O1066   2.381       .  S
Zr1057     O1067   2.420       .  S
Zr1057     O1068   2.417       .  S
O1058      H1114   0.990       .  S
O1058      H1122   0.989       .  S
O1059      C1079   1.290       .  A
O1060      C1081   1.287       .  A
O1061     Zr1071   2.471       .  S
O1061      C1080   1.291       .  A
O1062     Zr1070   2.413   1_554  S
O1062      C1081   1.280       .  A
O1063      C1080   1.279       .  A
O1064     Zr1072   2.393       .  S
O1064      C1079   1.275       .  A
O1065     Zr1070   2.392       .  S
O1065     Zr1072   2.384       .  S
O1066     Zr1071   2.377       .  S
O1066     Zr1072   2.389       .  S
O1066      H1101   0.964       .  S
O1067     Zr1070   2.388       .  S
O1067     Zr1087   2.418       .  S
O1067      H1104   0.965   1_556  S
O1068     Zr1071   2.378       .  S
O1068     Zr1087   2.411       .  S
Zr1069     O1094   2.441       .  S
Zr1069     O1088   2.431       .  S
Zr1069     O1096   2.454       .  S
Zr1069     O1084   2.483       .  S
Zr1069     O1075   2.398       .  S
Zr1069     O1076   2.400       .  S
Zr1069     O1077   2.378       .  S
Zr1069     O1078   2.394       .  S
Zr1070     O1089   2.438   1_556  S
Zr1070     O1082   2.435   1_556  S
Zr1070     O1083   2.385       .  S
Zr1070     O1076   2.399       .  S
Zr1070     O1077   2.396       .  S
Zr1071     O1073   2.435       .  S
Zr1071     O1095   2.439       .  S
Zr1071     O1097   2.416       .  S
Zr1071     O1075   2.409       .  S
Zr1071     O1078   2.393       .  S
Zr1072     O1098   2.435       .  S
Zr1072     O1099   2.435       .  S
Zr1072     O1074   2.439       .  S
Zr1072     O1075   2.380       .  S
Zr1072     O1076   2.386       .  S
O1073      H1110   0.990       .  S
O1074      H1105   0.990       .  S
O1074      H1119   0.990       .  S
O1076      H1102   0.966       .  S
O1077     Zr1087   2.370       .  S
O1078     Zr1087   2.370       .  S
O1078      H1103   0.966       .  S
C1079      C1353   1.475       .  S
C1080      C1273   1.503       .  S
C1081      C1206   1.487       .  S
O1082      H1118   0.990       .  S
O1083      C1085   1.276       .  A
O1084      C1085   1.294       .  A
C1085      C1753   1.477       .  S
O1086     Zr1087   2.438       .  S
O1086      H1115   0.990       .  S
Zr1087     O1090   2.438       .  S
Zr1087     O1091   2.438       .  S
Zr1087     O1092   2.467       .  S
O1088      C1093   1.283       .  A
O1089      H1106   0.990       .  S
O1089      H1121   0.990       .  S
O1090      H1107   0.990       .  S
O1091      H1111   0.990       .  S
O1091      H1120   0.990       .  S
O1092      C1093   1.290       .  A
C1093      C1385   1.497       .  S
O1094      H1113   0.990       .  S
O1094      H1117   0.991       .  S
O1095      H1109   0.990       .  S
O1095      H1116   0.990       .  S
O1096      C1100   1.289       .  A
O1097      C1100   1.282       .  A
O1098      H1108   0.990       .  S
O1099      H1112   0.990       .  S
C1100      C1190   1.487       .  S
Zr1123     O1124   2.444       .  S
Zr1123     O1125   2.481       .  S
Zr1123     O1126   2.459       .  S
Zr1123     O1129   2.416       .  S
Zr1123     O1131   2.378       .  S
Zr1123     O1132   2.381       .  S
Zr1123     O1133   2.419       .  S
Zr1123     O1134   2.420       .  S
O1124      H1180   0.990       .  S
O1124      H1188   0.991       .  S
O1125      C1145   1.291       .  A
O1126      C1147   1.287       .  A
O1127     Zr1137   2.470       .  S
O1127      C1146   1.291       .  A
O1128     Zr1136   2.408       .  S
O1128      C1147   1.277       .  A
O1129      C1146   1.281       .  A
O1130     Zr1138   2.393       .  S
O1130      C1145   1.277       .  A
O1131     Zr1136   2.399       .  S
O1131     Zr1138   2.387       .  S
O1132     Zr1137   2.378       .  S
O1132     Zr1138   2.389       .  S
O1132      H1167   0.965       .  S
O1133     Zr1136   2.388       .  S
O1133     Zr1153   2.415       .  S
O1133      H1170   0.965       .  S
O1134     Zr1137   2.382       .  S
O1134     Zr1153   2.411       .  S
Zr1135     O1160   2.438       .  S
Zr1135     O1154   2.429       .  S
Zr1135     O1162   2.449       .  S
Zr1135     O1150   2.485       .  S
Zr1135     O1141   2.399       .  S
Zr1135     O1142   2.407       .  S
Zr1135     O1143   2.381       .  S
Zr1135     O1144   2.399       .  S
Zr1136     O1155   2.438       .  S
Zr1136     O1148   2.434       .  S
Zr1136     O1149   2.379       .  S
Zr1136     O1142   2.403       .  S
Zr1136     O1143   2.397       .  S
Zr1137     O1139   2.435       .  S
Zr1137     O1161   2.439       .  S
Zr1137     O1163   2.430       .  S
Zr1137     O1141   2.398       .  S
Zr1137     O1144   2.391       .  S
Zr1138     O1164   2.435       .  S
Zr1138     O1165   2.437       .  S
Zr1138     O1140   2.438       .  S
Zr1138     O1141   2.375       .  S
Zr1138     O1142   2.387       .  S
O1139      H1176   0.990       .  S
O1140      H1171   0.990       .  S
O1140      H1185   0.990       .  S
O1142      H1168   0.967       .  S
O1143     Zr1153   2.371       .  S
O1144     Zr1153   2.370       .  S
O1144      H1169   0.965       .  S
C1145      C1289   1.500       .  S
C1146      C1222   1.511       .  S
C1147      C1193   1.487       .  S
O1148      H1184   0.989       .  S
O1149      C1151   1.275       .  A
O1150      C1151   1.292       .  A
C1151      C1689   1.475       .  S
O1152     Zr1153   2.439       .  S
O1152      H1181   0.990       .  S
Zr1153     O1156   2.438       .  S
Zr1153     O1157   2.438       .  S
Zr1153     O1158   2.464       .  S
O1154      C1159   1.282       .  A
O1155      H1172   0.990       .  S
O1155      H1187   0.990       .  S
O1156      H1173   0.990       .  S
O1157      H1177   0.990       .  S
O1157      H1186   0.990       .  S
O1158      C1159   1.289       .  A
C1159      C1433   1.491       .  S
O1160      H1179   0.990       .  S
O1160      H1183   0.990       .  S
O1161      H1175   0.990       .  S
O1161      H1182   0.990       .  S
O1162      C1166   1.288       .  A
O1163      C1166   1.286       .  A
O1164      H1174   0.990       .  S
O1165      H1178   0.990       .  S
C1166      C1209   1.488       .  S
C1189      C1190   1.405       .  A
C1189      C1194   1.405       .  A
C1189      H1196   1.084       .  S
C1190      C1191   1.419       .  A
C1191      C1192   1.404       .  A
C1191      C1198   1.509       .  S
C1192      C1193   1.404       .  A
C1192      H1197   1.084       .  S
C1193      C1194   1.418       .  A
C1194      C1195   1.508       .  S
C1195      H1199   1.111       .  S
C1195      H1200   1.110       .  S
C1195      H1201   1.109       .  S
C1198      H1202   1.109       .  S
C1198      H1203   1.111       .  S
C1198      H1204   1.111       .  S
C1205      C1206   1.406       .  A
C1205      C1210   1.407       .  A
C1205      H1212   1.084       .  S
C1206      C1207   1.416       .  A
C1207      C1208   1.402       .  A
C1207      C1214   1.505       .  S
C1208      C1209   1.404       .  A
C1208      H1213   1.084       .  S
C1209      C1210   1.417       .  A
C1210      C1211   1.506       .  S
C1211      H1215   1.111       .  S
C1211      H1216   1.107       .  S
C1211      H1217   1.110       .  S
C1214      H1218   1.110       .  S
C1214      H1219   1.106       .  S
C1214      H1220   1.111       .  S
C1221      C1222   1.415       .  A
C1221      C1226   1.410   1_565  A
C1221      H1228   1.083       .  S
C1222      C1223   1.418       .  A
C1223      C1224   1.411   1_565  A
C1223      C1230   1.508       .  S
C1224      C1225   1.415       .  A
C1224      H1229   1.083       .  S
C1225      C1226   1.417       .  A
C1226      C1227   1.507       .  S
C1227      H1231   1.111       .  S
C1227      H1232   1.110       .  S
C1227      H1233   1.110       .  S
C1230      H1234   1.110       .  S
C1230      H1235   1.110       .  S
C1230      H1236   1.111   1_565  S
C1237      C1238   1.407       .  A
C1237      C1242   1.412       .  A
C1237      H1244   1.084       .  S
C1238      C1239   1.417   1_455  A
C1239      C1240   1.408       .  A
C1239      C1246   1.506       .  S
C1240      C1241   1.405   1_655  A
C1240      H1245   1.084       .  S
C1241      C1242   1.418       .  A
C1242      C1243   1.507       .  S
C1243      H1247   1.111       .  S
C1243      H1248   1.108       .  S
C1243      H1249   1.111       .  S
C1246      H1250   1.110       .  S
C1246      H1251   1.107       .  S
C1246      H1252   1.111       .  S
C1253      C1254   1.407       .  A
C1253      C1258   1.412       .  A
C1253      H1260   1.084       .  S
C1254      C1255   1.422   1_455  A
C1255      C1256   1.407       .  A
C1255      C1262   1.509       .  S
C1256      C1257   1.401   1_655  A
C1256      H1261   1.084       .  S
C1257      C1258   1.418       .  A
C1258      C1259   1.508       .  S
C1259      H1263   1.111       .  S
C1259      H1264   1.111       .  S
C1259      H1265   1.109       .  S
C1262      H1266   1.108       .  S
C1262      H1267   1.110       .  S
C1262      H1268   1.111       .  S
C1269      C1270   1.413       .  A
C1269      C1274   1.407       .  A
C1269      H1276   1.084       .  S
C1270      C1271   1.414       .  A
C1271      C1272   1.405   1_545  A
C1271      C1278   1.509   1_556  S
C1272      C1273   1.415       .  A
C1272      H1277   1.081   1_556  S
C1273      C1274   1.416   1_565  A
C1274      C1275   1.507   1_545  S
C1275      H1279   1.111   1_565  S
C1275      H1280   1.110       .  S
C1275      H1281   1.110       .  S
C1278      H1282   1.110       .  S
C1278      H1283   1.110       .  S
C1278      H1284   1.111       .  S
C1285      C1286   1.406       .  A
C1285      C1290   1.410   1_455  A
C1285      H1292   1.085       .  S
C1286      C1287   1.407       .  A
C1287      C1288   1.404   1_455  A
C1287      C1294   1.506       .  S
C1288      C1289   1.414       .  A
C1288      H1293   1.084       .  S
C1289      C1290   1.420       .  A
C1290      C1291   1.508       .  S
C1291      H1295   1.111       .  S
C1291      H1296   1.110       .  S
C1291      H1297   1.110       .  S
C1294      H1298   1.110       .  S
C1294      H1299   1.109       .  S
C1294      H1300   1.111       .  S
C1301      C1302   1.409       .  A
C1301      C1306   1.405       .  A
C1301      H1308   1.085       .  S
C1302      C1303   1.402       .  A
C1303      C1304   1.403       .  A
C1303      C1310   1.506       .  S
C1304      C1305   1.415       .  A
C1304      H1309   1.084       .  S
C1305      C1306   1.411       .  A
C1306      C1307   1.506       .  S
C1307      H1311   1.111       .  S
C1307      H1312   1.111       .  S
C1307      H1313   1.109       .  S
C1310      H1314   1.111       .  S
C1310      H1315   1.110       .  S
C1310      H1316   1.111       .  S
C1317      C1318   1.410       .  A
C1317      C1322   1.403       .  A
C1317      H1324   1.084       .  S
C1318      C1319   1.414       .  A
C1319      C1320   1.409       .  A
C1319      C1326   1.506       .  S
C1320      C1321   1.409       .  A
C1320      H1325   1.084       .  S
C1321      C1322   1.411       .  A
C1322      C1323   1.508       .  S
C1323      H1327   1.111   1_545  S
C1323      H1328   1.110   1_545  S
C1323      H1329   1.109       .  S
C1326      H1330   1.108       .  S
C1326      H1331   1.111       .  S
C1326      H1332   1.111       .  S
C1333      C1334   1.412       .  A
C1333      C1338   1.403       .  A
C1333      H1340   1.084       .  S
C1334      C1335   1.415       .  A
C1335      C1336   1.406       .  A
C1335      C1342   1.505       .  S
C1336      C1337   1.409       .  A
C1336      H1341   1.084       .  S
C1337      C1338   1.413       .  A
C1338      C1339   1.508       .  S
C1339      H1343   1.111       .  S
C1339      H1344   1.110   1_545  S
C1339      H1345   1.108       .  S
C1342      H1346   1.107       .  S
C1342      H1347   1.110       .  S
C1342      H1348   1.111       .  S
C1349      C1350   1.406       .  A
C1349      C1354   1.405       .  A
C1349      H1356   1.084       .  S
C1350      C1351   1.414       .  A
C1351      C1352   1.407   1_455  A
C1351      C1358   1.507       .  S
C1352      C1353   1.404       .  A
C1352      H1357   1.084       .  S
C1353      C1354   1.411   1_655  A
C1354      C1355   1.507   1_456  S
C1355      H1359   1.111   1_655  S
C1355      H1360   1.109   1_554  S
C1355      H1361   1.110       .  S
C1358      H1362   1.110       .  S
C1358      H1363   1.111   1_565  S
C1358      H1364   1.111       .  S
C1365      C1366   1.402       .  A
C1365      C1370   1.408       .  A
C1365      H1372   1.084   1_556  S
C1366      C1367   1.426       .  A
C1367      C1368   1.403       .  A
C1367      C1374   1.507       .  S
C1368      C1369   1.392       .  A
C1368      H1373   1.084       .  S
C1369      C1370   1.419       .  A
C1370      C1371   1.508   1_556  S
C1371      H1375   1.111       .  S
C1371      H1376   1.111       .  S
C1371      H1377   1.107       .  S
C1374      H1378   1.110       .  S
C1374      H1379   1.107       .  S
C1374      H1380   1.111       .  S
C1381      C1382   1.402       .  A
C1381      C1386   1.412       .  A
C1381      H1388   1.084       .  S
C1382      C1383   1.419       .  A
C1383      C1384   1.411       .  A
C1383      C1390   1.508       .  S
C1384      C1385   1.404       .  A
C1384      H1389   1.084       .  S
C1385      C1386   1.422       .  A
C1386      C1387   1.509       .  S
C1387      H1391   1.111       .  S
C1387      H1392   1.109       .  S
C1387      H1393   1.111       .  S
C1390      H1394   1.109       .  S
C1390      H1395   1.110       .  S
C1390      H1396   1.111       .  S
C1397      C1398   1.413       .  A
C1397      C1402   1.402       .  A
C1397      H1404   1.083       .  S
C1398      C1399   1.416       .  A
C1399      C1400   1.408       .  A
C1399      C1406   1.507       .  S
C1400      C1401   1.409       .  A
C1400      H1405   1.084       .  S
C1401      C1402   1.410       .  A
C1402      C1403   1.508       .  S
C1403      H1407   1.111       .  S
C1403      H1408   1.110       .  S
C1403      H1409   1.109       .  S
C1406      H1410   1.108       .  S
C1406      H1411   1.110       .  S
C1406      H1412   1.111       .  S
C1413      C1414   1.407   1_556  A
C1413      C1418   1.406       .  A
C1413      H1420   1.084   1_556  S
C1414      C1415   1.412   1_554  A
C1415      C1416   1.405       .  A
C1415      C1422   1.506   1_556  S
C1416      C1417   1.410       .  A
C1416      H1421   1.084       .  S
C1417      C1418   1.416       .  A
C1418      C1419   1.506       .  S
C1419      H1423   1.111       .  S
C1419      H1424   1.109       .  S
C1419      H1425   1.110       .  S
C1422      H1426   1.111       .  S
C1422      H1427   1.108       .  S
C1422      H1428   1.111   1_554  S
C1429      C1430   1.406       .  A
C1429      C1434   1.405       .  A
C1429      H1436   1.084       .  S
C1430      C1431   1.412       .  A
C1431      C1432   1.412       .  A
C1431      C1438   1.506       .  S
C1432      C1433   1.411       .  A
C1432      H1437   1.084       .  S
C1433      C1434   1.413       .  A
C1434      C1435   1.506       .  S
C1435      H1439   1.111       .  S
C1435      H1440   1.109       .  S
C1435      H1441   1.111       .  S
C1438      H1442   1.110       .  S
C1438      H1443   1.110       .  S
C1438      H1444   1.111       .  S
C1445      C1446   1.410       .  A
C1445      C1450   1.408       .  A
C1445      H1452   1.084       .  S
C1446      C1447   1.416       .  A
C1447      C1448   1.412       .  A
C1447      C1454   1.505       .  S
C1448      C1449   1.406       .  A
C1448      H1453   1.084       .  S
C1449      C1450   1.413       .  A
C1450      C1451   1.507       .  S
C1451      H1455   1.110       .  S
C1451      H1456   1.111       .  S
C1451      H1457   1.109       .  S
C1454      H1458   1.110       .  S
C1454      H1459   1.108       .  S
C1454      H1460   1.111       .  S
C1461      C1462   1.400       .  A
C1461      C1466   1.409       .  A
C1461      H1468   1.084       .  S
C1462      C1463   1.417       .  A
C1463      C1464   1.411       .  A
C1463      C1470   1.507       .  S
C1464      C1465   1.406       .  A
C1464      H1469   1.084       .  S
C1465      C1466   1.424       .  A
C1466      C1467   1.510       .  S
C1467      H1471   1.111       .  S
C1467      H1472   1.111       .  S
C1467      H1473   1.109       .  S
C1470      H1474   1.109       .  S
C1470      H1475   1.110       .  S
C1470      H1476   1.111       .  S
C1477      C1478   1.407       .  A
C1477      C1482   1.399       .  A
C1477      H1484   1.084       .  S
C1478      C1479   1.412       .  A
C1479      C1480   1.399       .  A
C1479      C1486   1.505       .  S
C1480      C1481   1.404       .  A
C1480      H1485   1.085       .  S
C1481      C1482   1.410       .  A
C1482      C1483   1.507       .  S
C1483      H1487   1.111       .  S
C1483      H1488   1.108       .  S
C1483      H1489   1.111       .  S
C1486      H1490   1.110       .  S
C1486      H1491   1.107       .  S
C1486      H1492   1.111       .  S
C1493      C1494   1.406       .  A
C1493      C1498   1.399   1_554  A
C1493      H1500   1.084       .  S
C1494      C1495   1.415       .  A
C1495      C1496   1.404   1_554  A
C1495      C1502   1.508       .  S
C1496      C1497   1.405       .  A
C1496      H1501   1.084       .  S
C1497      C1498   1.413       .  A
C1498      C1499   1.510       .  S
C1499      H1503   1.111       .  S
C1499      H1504   1.111       .  S
C1499      H1505   1.109       .  S
C1502      H1506   1.109       .  S
C1502      H1507   1.111       .  S
C1502      H1508   1.111   1_554  S
C1509      C1510   1.415       .  A
C1509      C1514   1.404       .  A
C1509      H1516   1.083       .  S
C1510      C1511   1.410       .  A
C1511      C1512   1.407       .  A
C1511      C1518   1.507       .  S
C1512      C1513   1.416       .  A
C1512      H1517   1.083       .  S
C1513      C1514   1.410       .  A
C1514      C1515   1.508       .  S
C1515      H1519   1.111       .  S
C1515      H1520   1.110       .  S
C1515      H1521   1.110       .  S
C1518      H1522   1.110       .  S
C1518      H1523   1.109       .  S
C1518      H1524   1.111       .  S
C1525      C1526   1.407       .  A
C1525      C1530   1.409       .  A
C1525      H1532   1.085       .  S
C1526      C1527   1.407       .  A
C1527      C1528   1.407       .  A
C1527      C1534   1.507       .  S
C1528      C1529   1.414       .  A
C1528      H1533   1.083       .  S
C1529      C1530   1.419       .  A
C1530      C1531   1.507       .  S
C1531      H1535   1.111       .  S
C1531      H1536   1.110       .  S
C1531      H1537   1.109       .  S
C1534      H1538   1.110       .  S
C1534      H1539   1.111       .  S
C1534      H1540   1.111       .  S
C1541      C1542   1.408       .  A
C1541      C1546   1.411       .  A
C1541      H1548   1.083       .  S
C1542      C1543   1.417       .  A
C1543      C1544   1.412       .  A
C1543      C1550   1.508       .  S
C1544      C1545   1.407       .  A
C1544      H1549   1.081       .  S
C1545      C1546   1.413       .  A
C1546      C1547   1.505       .  S
C1547      H1551   1.111       .  S
C1547      H1552   1.110       .  S
C1547      H1553   1.111       .  S
C1550      H1554   1.109       .  S
C1550      H1555   1.111       .  S
C1550      H1556   1.111       .  S
C1557      C1558   1.415       .  A
C1557      C1562   1.399       .  A
C1557      H1564   1.083       .  S
C1558      C1559   1.416       .  A
C1559      C1560   1.409       .  A
C1559      C1566   1.507       .  S
C1560      C1561   1.408       .  A
C1560      H1565   1.080       .  S
C1561      C1562   1.405       .  A
C1562      C1563   1.509       .  S
C1563      H1567   1.111       .  S
C1563      H1568   1.108       .  S
C1563      H1569   1.111       .  S
C1566      H1570   1.110       .  S
C1566      H1571   1.108       .  S
C1566      H1572   1.111       .  S
C1573      C1574   1.410       .  A
C1573      C1578   1.398       .  A
C1573      H1580   1.085       .  S
C1574      C1575   1.418       .  A
C1575      C1576   1.410       .  A
C1575      C1582   1.506       .  S
C1576      C1577   1.405       .  A
C1576      H1581   1.084       .  S
C1577      C1578   1.409       .  A
C1578      C1579   1.509       .  S
C1579      H1583   1.110       .  S
C1579      H1584   1.111       .  S
C1579      H1585   1.108       .  S
C1582      H1586   1.110       .  S
C1582      H1587   1.108       .  S
C1582      H1588   1.111       .  S
C1589      C1590   1.405       .  A
C1589      C1594   1.401       .  A
C1589      H1596   1.084       .  S
C1590      C1591   1.413       .  A
C1591      C1592   1.404       .  A
C1591      C1598   1.506       .  S
C1592      C1593   1.406       .  A
C1592      H1597   1.084       .  S
C1593      C1594   1.414       .  A
C1594      C1595   1.508       .  S
C1595      H1599   1.111       .  S
C1595      H1600   1.108       .  S
C1595      H1601   1.111       .  S
C1598      H1602   1.111       .  S
C1598      H1603   1.108       .  S
C1598      H1604   1.111       .  S
C1605      C1606   1.407   1_556  A
C1605      C1610   1.402       .  A
C1605      H1612   1.084   1_556  S
C1606      C1607   1.418   1_554  A
C1607      C1608   1.405       .  A
C1607      C1614   1.509   1_556  S
C1608      C1609   1.405       .  A
C1608      H1613   1.084       .  S
C1609      C1610   1.413       .  A
C1610      C1611   1.507       .  S
C1611      H1615   1.111       .  S
C1611      H1616   1.109       .  S
C1611      H1617   1.109       .  S
C1614      H1618   1.108       .  S
C1614      H1619   1.111       .  S
C1614      H1620   1.111   1_554  S
C1621      C1622   1.408       .  A
C1621      C1626   1.412       .  A
C1621      H1628   1.084       .  S
C1622      C1623   1.411       .  A
C1623      C1624   1.412       .  A
C1623      C1630   1.506       .  S
C1624      C1625   1.412       .  A
C1624      H1629   1.083       .  S
C1625      C1626   1.417       .  A
C1626      C1627   1.507       .  S
C1627      H1631   1.111       .  S
C1627      H1632   1.109       .  S
C1627      H1633   1.111       .  S
C1630      H1634   1.110       .  S
C1630      H1635   1.111       .  S
C1630      H1636   1.111       .  S
C1637      C1638   1.404       .  A
C1637      C1642   1.401       .  A
C1637      H1644   1.085       .  S
C1638      C1639   1.407       .  A
C1639      C1640   1.404       .  A
C1639      C1646   1.508       .  S
C1640      C1641   1.415       .  A
C1640      H1645   1.083       .  S
C1641      C1642   1.417       .  A
C1642      C1643   1.508       .  S
C1643      H1647   1.111       .  S
C1643      H1648   1.110       .  S
C1643      H1649   1.108       .  S
C1646      H1650   1.111       .  S
C1646      H1651   1.110       .  S
C1646      H1652   1.111       .  S
C1653      C1654   1.405       .  A
C1653      C1658   1.407       .  A
C1653      H1660   1.084       .  S
C1654      C1655   1.415       .  A
C1655      C1656   1.407       .  A
C1655      C1662   1.508       .  S
C1656      C1657   1.403       .  A
C1656      H1661   1.085       .  S
C1657      C1658   1.412       .  A
C1658      C1659   1.506       .  S
C1659      H1663   1.111       .  S
C1659      H1664   1.109       .  S
C1659      H1665   1.110       .  S
C1662      H1666   1.109       .  S
C1662      H1667   1.111       .  S
C1662      H1668   1.111       .  S
C1669      C1670   1.416       .  A
C1669      C1674   1.400       .  A
C1669      H1676   1.082       .  S
C1670      C1671   1.414       .  A
C1671      C1672   1.415       .  A
C1671      C1678   1.506       .  S
C1672      C1673   1.416       .  A
C1672      H1677   1.084       .  S
C1673      C1674   1.410       .  A
C1674      C1675   1.509       .  S
C1675      H1679   1.111       .  S
C1675      H1680   1.106       .  S
C1675      H1681   1.110       .  S
C1678      H1682   1.110       .  S
C1678      H1683   1.110       .  S
C1678      H1684   1.111       .  S
C1685      C1686   1.411       .  A
C1685      C1690   1.406       .  A
C1685      H1692   1.085       .  S
C1686      C1687   1.414       .  A
C1687      C1688   1.405       .  A
C1687      C1694   1.506       .  S
C1688      C1689   1.405       .  A
C1688      H1693   1.085       .  S
C1689      C1690   1.412       .  A
C1690      C1691   1.508       .  S
C1691      H1695   1.111       .  S
C1691      H1696   1.107       .  S
C1691      H1697   1.111       .  S
C1694      H1698   1.110       .  S
C1694      H1699   1.109       .  S
C1694      H1700   1.111       .  S
C1701      C1702   1.406       .  A
C1701      C1706   1.411       .  A
C1701      H1708   1.084       .  S
C1702      C1703   1.420       .  A
C1703      C1704   1.404       .  A
C1703      C1710   1.510       .  S
C1704      C1705   1.403       .  A
C1704      H1709   1.084       .  S
C1705      C1706   1.420       .  A
C1706      C1707   1.508       .  S
C1707      H1711   1.111       .  S
C1707      H1712   1.111       .  S
C1707      H1713   1.109       .  S
C1710      H1714   1.108       .  S
C1710      H1715   1.110       .  S
C1710      H1716   1.111       .  S
C1717      C1718   1.404       .  A
C1717      C1722   1.409       .  A
C1717      H1724   1.084       .  S
C1718      C1719   1.425       .  A
C1719      C1720   1.408       .  A
C1719      C1726   1.510       .  S
C1720      C1721   1.404       .  A
C1720      H1725   1.084       .  S
C1721      C1722   1.425       .  A
C1722      C1723   1.510       .  S
C1723      H1727   1.111       .  S
C1723      H1728   1.110       .  S
C1723      H1729   1.110       .  S
C1726      H1730   1.110       .  S
C1726      H1731   1.108       .  S
C1726      H1732   1.111       .  S
C1733      C1734   1.415       .  A
C1733      C1738   1.399       .  A
C1733      H1740   1.082       .  S
C1734      C1735   1.415       .  A
C1735      C1736   1.415       .  A
C1735      C1742   1.506       .  S
C1736      C1737   1.416       .  A
C1736      H1741   1.084       .  S
C1737      C1738   1.411       .  A
C1738      C1739   1.509       .  S
C1739      H1743   1.111       .  S
C1739      H1744   1.105       .  S
C1739      H1745   1.110       .  S
C1742      H1746   1.110       .  S
C1742      H1747   1.110       .  S
C1742      H1748   1.111       .  S
C1749      C1750   1.411       .  A
C1749      C1754   1.409       .  A
C1749      H1756   1.084       .  S
C1750      C1751   1.415       .  A
C1751      C1752   1.405       .  A
C1751      C1758   1.507   1_556  S
C1752      C1753   1.404       .  A
C1752      H1757   1.085       .  S
C1753      C1754   1.410       .  A
C1754      C1755   1.506       .  S
C1755      H1759   1.111       .  S
C1755      H1760   1.110       .  S
C1755      H1761   1.111       .  S
C1758      H1762   1.110   1_554  S
C1758      H1763   1.109       .  S
C1758      H1764   1.111   1_554  S
C1765      C1766   1.403       .  A
C1765      C1770   1.403       .  A
C1765      H1772   1.081       .  S
C1766      C1767   1.406       .  A
C1767      C1768   1.400       .  A
C1767      C1774   1.508       .  S
C1768      C1769   1.412       .  A
C1768      H1773   1.084       .  S
C1769      C1770   1.417       .  A
C1770      C1771   1.508       .  S
C1771      H1775   1.111       .  S
C1771      H1776   1.110       .  S
C1771      H1777   1.110       .  S
C1774      H1778   1.110       .  S
C1774      H1779   1.110       .  S
C1774      H1780   1.111       .  S
C1781      C1782   1.416       .  A
C1781      C1786   1.402   1_545  A
C1781      H1788   1.084       .  S
C1782      C1783   1.405       .  A
C1783      C1784   1.395   1_545  A
C1783      C1790   1.510       .  S
C1784      C1785   1.420       .  A
C1784      H1789   1.083       .  S
C1785      C1786   1.408       .  A
C1786      C1787   1.506       .  S
C1787      H1791   1.111   1_565  S
C1787      H1792   1.109       .  S
C1787      H1793   1.110       .  S
C1790      H1794   1.110       .  S
C1790      H1795   1.110       .  S
C1790      H1796   1.111   1_545  S
C1797      C1798   1.409       .  A
C1797      C1802   1.417       .  A
C1797      H1804   1.084       .  S
C1798      C1799   1.406       .  A
C1799      C1800   1.402       .  A
C1799      C1806   1.508       .  S
C1800      C1801   1.413       .  A
C1800      H1805   1.082       .  S
C1801      C1802   1.419       .  A
C1802      C1803   1.505       .  S
C1803      H1807   1.111       .  S
C1803      H1808   1.110       .  S
C1803      H1809   1.110       .  S
C1806      H1810   1.110       .  S
C1806      H1811   1.108       .  S
C1806      H1812   1.111       .  S
C1813      C1814   1.407       .  A
C1813      C1818   1.400       .  A
C1813      H1820   1.084       .  S
C1814      C1815   1.415       .  A
C1815      C1816   1.405       .  A
C1815      C1822   1.508       .  S
C1816      C1817   1.406       .  A
C1816      H1821   1.084       .  S
C1817      C1818   1.415       .  A
C1818      C1819   1.510       .  S
C1819      H1823   1.111       .  S
C1819      H1824   1.111       .  S
C1819      H1825   1.109       .  S
C1822      H1826   1.109       .  S
C1822      H1827   1.110       .  S
C1822      H1828   1.111       .  S
C1829      C1830   1.403       .  A
C1829      C1834   1.402       .  A
C1829      H1836   1.085       .  S
C1830      C1831   1.411       .  A
C1831      C1832   1.401       .  A
C1831      C1838   1.509       .  S
C1832      C1833   1.407       .  A
C1832      H1837   1.084       .  S
C1833      C1834   1.417       .  A
C1834      C1835   1.508       .  S
C1835      H1839   1.111       .  S
C1835      H1840   1.108       .  S
C1835      H1841   1.110       .  S
C1838      H1842   1.110       .  S
C1838      H1843   1.109       .  S
C1838      H1844   1.111       .  S
C1845      C1846   1.418       .  A
C1845      C1850   1.410       .  A
C1845      H1852   1.082       .  S
C1846      C1847   1.411       .  A
C1847      C1848   1.403       .  A
C1847      C1854   1.508       .  S
C1848      C1849   1.416       .  A
C1848      H1853   1.083       .  S
C1849      C1850   1.410       .  A
C1850      C1851   1.506       .  S
C1851      H1855   1.111       .  S
C1851      H1856   1.110       .  S
C1851      H1857   1.108       .  S
C1854      H1858   1.111       .  S
C1854      H1859   1.110       .  S
C1854      H1860   1.111       .  S
C1861      C1862   1.400       .  A
C1861      C1866   1.399   1_565  A
C1861      H1868   1.084       .  S
C1862      C1863   1.416       .  A
C1863      C1864   1.405   1_565  A
C1863      C1870   1.507       .  S
C1864      C1865   1.401       .  A
C1864      H1869   1.084       .  S
C1865      C1866   1.412       .  A
C1866      C1867   1.509       .  S
C1867      H1871   1.111   1_545  S
C1867      H1872   1.109       .  S
C1867      H1873   1.110       .  S
C1870      H1874   1.110       .  S
C1870      H1875   1.109       .  S
C1870      H1876   1.111       .  S
C1877      C1878   1.410   1_556  A
C1877      C1882   1.406       .  A
C1877      H1884   1.084   1_556  S
C1878      C1879   1.417   1_554  A
C1879      C1880   1.410       .  A
C1879      C1886   1.507       .  S
C1880      C1881   1.407       .  A
C1880      H1885   1.084       .  S
C1881      C1882   1.412       .  A
C1882      C1883   1.507       .  S
C1883      H1887   1.110       .  S
C1883      H1888   1.109       .  S
C1883      H1889   1.111       .  S
C1886      H1890   1.110       .  S
C1886      H1891   1.109   1_556  S
C1886      H1892   1.111       .  S
C1893      C1894   1.409       .  A
C1893      C1898   1.408       .  A
C1893      H1900   1.084       .  S
C1894      C1895   1.414       .  A
C1895      C1896   1.410       .  A
C1895      C1902   1.506       .  S
C1896      C1897   1.407       .  A
C1896      H1901   1.084       .  S
C1897      C1898   1.412       .  A
C1898      C1899   1.507       .  S
C1899      H1903   1.111       .  S
C1899      H1904   1.109       .  S
C1899      H1905   1.111       .  S
C1902      H1906   1.110       .  S
C1902      H1907   1.110       .  S
C1902      H1908   1.111       .  S
C1909      C1910   1.416       .  A
C1909      C1914   1.405       .  A
C1909      H1916   1.083       .  S
C1910      C1911   1.421       .  A
C1911      C1912   1.407       .  A
C1911      C1918   1.507       .  S
C1912      C1913   1.405       .  A
C1912      H1917   1.083       .  S
C1913      C1914   1.408       .  A
C1914      C1915   1.507       .  S
C1915      H1919   1.111       .  S
C1915      H1920   1.110       .  S
C1915      H1921   1.109       .  S
C1918      H1922   1.110       .  S
C1918      H1923   1.109       .  S
C1918      H1924   1.111       .  S
C1925      C1926   1.404       .  A
C1925      C1930   1.407       .  A
C1925      H1932   1.083       .  S
C1926      C1927   1.406       .  A
C1927      C1928   1.397       .  A
C1927      C1934   1.507       .  S
C1928      C1929   1.410       .  A
C1928      H1933   1.084       .  S
C1929      C1930   1.420       .  A
C1930      C1931   1.506       .  S
C1931      H1935   1.111       .  S
C1931      H1936   1.110       .  S
C1931      H1937   1.106       .  S
C1934      H1938   1.110       .  S
C1934      H1939   1.108       .  S
C1934      H1940   1.110       .  S
C1941      C1942   1.400       .  A
C1941      C1946   1.402   1_655  A
C1941      H1948   1.084       .  S
C1942      C1943   1.412       .  A
C1943      C1944   1.407   1_655  A
C1943      C1950   1.506       .  S
C1944      C1945   1.405       .  A
C1944      H1949   1.084       .  S
C1945      C1946   1.412       .  A
C1946      C1947   1.507       .  S
C1947      H1951   1.111       .  S
C1947      H1952   1.110       .  S
C1947      H1953   1.110       .  S
C1950      H1954   1.110       .  S
C1950      H1955   1.110       .  S
C1950      H1956   1.111       .  S
C1957      C1958   1.411       .  A
C1957      C1962   1.406       .  A
C1957      H1964   1.084       .  S
C1958      C1959   1.415       .  A
C1959      C1960   1.405       .  A
C1959      C1966   1.505       .  S
C1960      C1961   1.405       .  A
C1960      H1965   1.084       .  S
C1961      C1962   1.411       .  A
C1962      C1963   1.508       .  S
C1963      H1967   1.111       .  S
C1963      H1968   1.110       .  S
C1963      H1969   1.109       .  S
C1966      H1970   1.107       .  S
C1966      H1971   1.110       .  S
C1966      H1972   1.111       .  S
C1973      C1974   1.406       .  A
C1973      C1978   1.403       .  A
C1973      H1980   1.084       .  S
C1974      C1975   1.411       .  A
C1975      C1976   1.401       .  A
C1975      C1982   1.506       .  S
C1976      C1977   1.407       .  A
C1976      H1981   1.084       .  S
C1977      C1978   1.414       .  A
C1978      C1979   1.507       .  S
C1979      H1983   1.111       .  S
C1979      H1984   1.108       .  S
C1979      H1985   1.110       .  S
C1982      H1986   1.111       .  S
C1982      H1987   1.107       .  S
C1982      H1988   1.111       .  S
C1989      C1990   1.407       .  A
C1989      C1994   1.410   1_554  A
C1989      H1996   1.084   1_554  S
C1990      C1991   1.411       .  A
C1991      C1992   1.411       .  A
C1991      C1998   1.506       .  S
C1992      C1993   1.410       .  A
C1992      H1997   1.084       .  S
C1993      C1994   1.416   1_554  A
C1994      C1995   1.507       .  S
C1995      H1999   1.111       .  S
C1995      H2000   1.109       .  S
C1995      H2001   1.110       .  S
C1998      H2002   1.110       .  S
C1998      H2003   1.110       .  S
C1998      H2004   1.111       .  S
C2005      C2006   1.406       .  A
C2005      C2010   1.409       .  A
C2005      H2012   1.084       .  S
C2006      C2007   1.417       .  A
C2007      C2008   1.410       .  A
C2007      C2014   1.507       .  S
C2008      C2009   1.404       .  A
C2008      H2013   1.084       .  S
C2009      C2010   1.413       .  A
C2010      C2011   1.507       .  S
C2011      H2015   1.111       .  S
C2011      H2016   1.110       .  S
C2011      H2017   1.109       .  S
C2014      H2018   1.109       .  S
C2014      H2019   1.110       .  S
C2014      H2020   1.111       .  S
C2021      C2022   1.412       .  A
C2021      C2026   1.398       .  A
C2021      H2028   1.084       .  S
C2022      C2023   1.419       .  A
C2023      C2024   1.402       .  A
C2023      C2030   1.505       .  S
C2024      C2025   1.399       .  A
C2024      H2029   1.085       .  S
C2025      C2026   1.404       .  A
C2026      C2027   1.507       .  S
C2027      H2031   1.111       .  S
C2027      H2032   1.110       .  S
C2027      H2033   1.110       .  S
C2030      H2034   1.109       .  S
C2030      H2035   1.110       .  S
C2030      H2036   1.111       .  S
C2037      C2038   1.399       .  A
C2037      C2042   1.402   1_655  A
C2037      H2044   1.083       .  S
C2038      C2039   1.414       .  A
C2039      C2040   1.409   1_655  A
C2039      C2046   1.507       .  S
C2040      C2041   1.404       .  A
C2040      H2045   1.084       .  S
C2041      C2042   1.415       .  A
C2042      C2043   1.509       .  S
C2043      H2047   1.111       .  S
C2043      H2048   1.109       .  S
C2043      H2049   1.110       .  S
C2046      H2050   1.111       .  S
C2046      H2051   1.110       .  S
C2046      H2052   1.111       .  S
