geometry optimzed in LAMMPS
_audit_creation_date              2020-12-01 
_audit_creation_method            'lammps2cif' 
_symmetry_space_group_name_H-M    'P1' 
_symmetry_Int_Tables_number       1 
_symmetry_cell_setting            triclinic 
loop_ 
_symmetry_equiv_pos_as_xyz 
  x,y,z 
_cell_length_a                    37.77886792 
_cell_length_b                    37.89041006688676 
_cell_length_c                    27.590578122388607 
_cell_angle_alpha                 89.94127004647473 
_cell_angle_beta                  89.88762976686715 
_cell_angle_gamma                 119.7148658544803 
loop_ 
_atom_site_label 
_atom_site_type_symbol 
_atom_site_fract_x 
_atom_site_fract_y 
_atom_site_fract_z 
_atom_site_charge 
O1          O  0.40943975  0.00020902  0.34328683    -0.86800
O2          O  0.38185685  0.05510354  0.33040150    -0.83800
C3          C  0.35325965  0.04880039  0.35949440     0.96700
O4          O  0.35987800  0.05851136  0.40378960    -0.83900
O5          O  0.38766455  0.04568830  0.49026200    -0.86500
C6          C  0.38250165  0.00956227  0.48975905     1.01200
O7          O  0.39970913  0.99946985  0.45782459    -0.79300
O8          O  0.45780706  0.50731174  0.39019037    -0.79500
C9          C  0.42722185  0.48464277  0.36591426     1.01100
O10         O  0.49620252  0.07165583  0.34367200    -0.86800
O11         O  0.46361570  0.12218267  0.33301563    -0.83900
C12         C  0.45641054  0.14745673  0.35433145     0.96700
O13         O  0.43326462  0.13767827  0.39121791    -0.83900
O14         O  0.46630190  0.12605556  0.47580845    -0.86500
C15         C  0.47708193  0.10725712  0.50468586     1.01200
O16         O  0.45958114  0.06967826  0.50088178    -0.79300
O17         O  0.01004189  0.08672117  0.42077923    -0.79500
C18         C  0.02211476  0.08650555  0.37811343     1.01100
Cr19       Cr  0.43750425  0.06248889  0.34177816     1.93700
Cr20       Cr  0.41307047  0.09053731  0.43777922     1.93200
Cr21       Cr  0.45518436  0.04159571  0.44025868     1.39100
O22         O  0.43480517  0.06545872  0.40569152    -1.24500
O23         O  0.07545768  0.07266475  0.68180032    -0.86800
O24         O  0.12100286  0.15590699  0.69786237    -0.83800
C25         C  0.14668109  0.18794884  0.67643253     0.96700
O26         O  0.13784417  0.20131374  0.63874998    -0.83900
O27         O  0.12862311  0.16191439  0.55316124    -0.86500
C28         C  0.11190855  0.13233938  0.52460194     1.01200
O29         O  0.07406030  0.11322319  0.52558598    -0.79300
O30         O  0.09279446  0.07922199  0.60448798    -0.79500
C31         C  0.08828478  0.06157033  0.64467827     1.01100
O32         O  0.99921587  0.08116442  0.68533442    -0.86800
O33         O  0.05017401  0.16498385  0.69999378    -0.83900
C34         C  0.04634783  0.18942195  0.67179815     0.96700
O35         O  0.05860551  0.19513156  0.62840997    -0.83900
O36         O  0.04401048  0.15659741  0.54062920    -0.86500
C37         C  0.00867976  0.12437301  0.54326005     1.01200
O38         O  0.00260892  0.09730872  0.57398568    -0.79300
O39         O  0.51374414  0.04661281  0.63690875    -0.79500
C40         C  0.48759152  0.04812824  0.66290265     1.01100
Cr41       Cr  0.06208764  0.11977325  0.68691973     1.93700
Cr42       Cr  0.09082357  0.17601141  0.59232677     1.93200
Cr43       Cr  0.04678875  0.08648624  0.58663921     1.39100
O44         O  0.06707827  0.12861838  0.62315665    -1.24500
O45         O  0.08333344  0.00881351  0.59774987    -0.86800
O46         O  0.07018714  0.46066913  0.51852730    -0.83800
C47         C  0.10787919  0.47754614  0.51538162     0.96700
O48         O  0.12587222  0.46549477  0.54381578    -0.83900
O49         O  0.13514197  0.43104380  0.62819450    -0.86500
C50         C  0.14545976  0.45588120  0.66305927     1.01200
O51         O  0.12064378  0.46417692  0.68372504    -0.79300
O52         O  0.06850388  0.49417928  0.67616338    -0.79500
C53         C  0.08283491  0.02046386  0.64058621     1.01100
O54         O  0.50443909  0.45584686  0.62815208    -0.86800
O55         O  0.99885512  0.40056646  0.55916797    -0.83900
C56         C  0.00931628  0.38358075  0.52744249     0.96700
O57         O  0.04526816  0.38814374  0.52778440    -0.83900
O58         O  0.05608662  0.35931477  0.61549266    -0.86500
C59         C  0.04818377  0.35324185  0.66040576     1.01200
O60         O  0.05555218  0.38206763  0.68914669    -0.79300
O61         O  0.99825417  0.40743171  0.67455092    -0.79500
C62         C  0.48185472  0.42483747  0.65184945     1.01100
Cr63       Cr  0.04095838  0.45537756  0.57847590     1.93700
Cr64       Cr  0.08907507  0.41222027  0.58115898     1.93200
Cr65       Cr  0.06082349  0.43657104  0.67678033     1.39100
O66         O  0.06405953  0.43418496  0.61290659    -1.24500
O67         O  0.07546414  0.07995517  0.33811497    -0.86800
O68         O  0.15927578  0.12642191  0.32734633    -0.83800
C69         C  0.19149150  0.15104225  0.34930297     0.96700
O70         O  0.20439632  0.14067544  0.38615951    -0.83900
O71         O  0.16238046  0.12964515  0.47054480    -0.86500
C72         C  0.13154199  0.11273556  0.49759810     1.01200
O73         O  0.11164199  0.07504256  0.49546835    -0.79300
O74         O  0.08033895  0.09587656  0.41550351    -0.79500
C75         C  0.06346817  0.09208717  0.37493089     1.01100
O76         O  0.08529060  0.00451202  0.33401363    -0.86800
O77         O  0.16905238  0.05652410  0.32191352    -0.83900
C78         C  0.19119619  0.04964575  0.35045613     0.96700
O79         O  0.19562681  0.05983785  0.39457903    -0.83900
O80         O  0.15545725  0.04463962  0.48144903    -0.86500
C81         C  0.12308537  0.00964491  0.47758454     1.01200
O82         O  0.09639231  0.00458477  0.44674229    -0.79300
O83         O  0.04935382  0.51633077  0.38399499    -0.79500
C84         C  0.05184232  0.49139908  0.35701633     1.01100
Cr85       Cr  0.12319758  0.06733004  0.33467525     1.93700
Cr86       Cr  0.17682003  0.09238808  0.43100774     1.93200
Cr87       Cr  0.08662278  0.04930851  0.43341434     1.39100
O88         O  0.13009830  0.07016355  0.39870550    -1.24500
O89         O  0.50243655  0.41890564  0.33521413    -0.86800
O90         O  0.45107724  0.33413327  0.32171890    -0.83800
C91         C  0.45606774  0.31104832  0.35092586     0.96700
O92         O  0.44377089  0.30602860  0.39429621    -0.83900
O93         O  0.44928364  0.34128573  0.48169601    -0.86500
C94         C  0.48480585  0.37258324  0.48392896     1.01200
O95         O  0.49507468  0.40186270  0.45480344    -0.79300
O96         O  0.98864288  0.45230070  0.38653314    -0.79500
C97         C  0.01354783  0.45128356  0.35791519     1.01100
O98         O  0.42857401  0.42775360  0.33320645    -0.86800
O99         O  0.38086101  0.34487622  0.32117743    -0.83900
C100        C  0.35583501  0.31136749  0.34030816     0.96700
O101        O  0.36495881  0.29659403  0.37597900    -0.83900
O102        O  0.36755561  0.33642166  0.46217914    -0.86500
C103        C  0.38332797  0.36538127  0.49211080     1.01200
O104        O  0.42100806  0.38584552  0.49187617    -0.79300
O105        O  0.40947119  0.42534578  0.40936801    -0.79500
C106        C  0.41562405  0.44131044  0.36730848     1.01100
Cr107      Cr  0.43990710  0.38000926  0.33245180     1.93700
Cr108      Cr  0.40799181  0.32331949  0.42612578     1.93200
Cr109      Cr  0.45225655  0.41363575  0.43369706     1.39100
O110        O  0.43327789  0.37156579  0.39638666    -1.24500
O111        O  0.41455758  0.49769129  0.68349337    -0.86800
O112        O  0.32938274  0.44461882  0.69587193    -0.83800
C113        C  0.30673236  0.45067804  0.66731579     0.96700
O114        O  0.30316958  0.44103625  0.62304018    -0.83900
O115        O  0.34069978  0.45012533  0.53542863    -0.86500
C116        C  0.37243117  0.48541511  0.53441377     1.01200
O117        O  0.40118158  0.49444721  0.56396240    -0.79300
O118        O  0.44948501  0.98629743  0.63012496    -0.79500
C119        C  0.44750024  0.00972602  0.66008311     1.01100
O120        O  0.42392868  0.42416100  0.68359625    -0.86800
O121        O  0.34095321  0.37550175  0.69215960    -0.83900
C122        C  0.30791233  0.35107966  0.67158717     0.96700
O123        O  0.29359711  0.36151851  0.63660280    -0.83900
O124        O  0.33462740  0.36761628  0.55101362    -0.86500
C125        C  0.36440103  0.38400159  0.52208002     1.01200
O126        O  0.38548003  0.42155995  0.52405521    -0.79300
O127        O  0.42319620  0.40728309  0.60695622    -0.79500
C128        C  0.43831472  0.41231507  0.64939533     1.01100
Cr129      Cr  0.37598530  0.43492313  0.68408680     1.93700
Cr130      Cr  0.32122075  0.40671322  0.58898034     1.93200
Cr131      Cr  0.41213394  0.45079199  0.58376886     1.39100
O132        O  0.36897595  0.43064373  0.61988701    -1.24500
O133        O  0.24225594  0.41308601  0.35092883    -0.86800
O134        O  0.28447774  0.99661465  0.36418774    -0.83800
C135        C  0.31111592  0.02736217  0.34112235     0.96700
O136        O  0.30346940  0.03858646  0.30110314    -0.83900
O137        O  0.29436401  0.99766946  0.21618938    -0.86500
C138        C  0.27781135  0.46931409  0.18651340     1.01200
O139        O  0.24063963  0.44713520  0.19076037    -0.79300
O140        O  0.26149920  0.41790152  0.27423242    -0.79500
C141        C  0.25722979  0.40219187  0.31613806     1.01100
O142        O  0.16385227  0.41620936  0.34494078    -0.86800
O143        O  0.21141196  0.00088044  0.36032627    -0.83900
C144        C  0.21069709  0.02712700  0.33254794     0.96700
O145        O  0.22490284  0.03349544  0.28991796    -0.83900
O146        O  0.21090740  0.99189113  0.20316063    -0.86500
C147        C  0.17683315  0.45842402  0.20303145     1.01200
O148        O  0.16912164  0.43137829  0.23470881    -0.79300
O149        O  0.18189414  0.38265317  0.29961842    -0.79500
C150        C  0.15438920  0.38348782  0.32257009     1.01100
Cr151      Cr  0.22618905  0.45771917  0.35092646     1.93700
Cr152      Cr  0.25669527  0.01247023  0.25514914     1.93200
Cr153      Cr  0.21458903  0.42261146  0.25197272     1.39100
O154        O  0.23307817  0.46554479  0.28722355    -1.24500
O155        O  0.08183882  0.33467580  0.99326841    -0.86800
O156        O  0.05216077  0.38926914  0.99151193    -0.83800
C157        C  0.02340357  0.37279640  0.02201052     0.96700
O158        O  0.03087474  0.37324133  0.06649564    -0.83900
O159        O  0.06926108  0.36753185  0.14826737    -0.86500
C160        C  0.07547148  0.33732759  0.14977114     1.01200
O161        O  0.09863428  0.33357810  0.11949484    -0.79300
O162        O  0.13499003  0.34092053  0.03150675    -0.79500
C163        C  0.10231831  0.31903484  0.00903591     1.01100
O164        O  0.16600637  0.40315181  0.98318339    -0.86800
O165        O  0.13349500  0.45447118  0.99516984    -0.83900
C166        C  0.12134332  0.47466941  0.01931780     0.96700
O167        O  0.09467706  0.45880324  0.05285742    -0.83900
O168        O  0.13242840  0.45266873  0.13596627    -0.86500
C169        C  0.15449942  0.44155972  0.15791814     1.01200
O170        O  0.15591792  0.41097144  0.14418058    -0.79300
O171        O  0.18648694  0.42889029  0.05327059    -0.79500
C172        C  0.19511392  0.41987655  0.01336136     1.01100
Cr173      Cr  0.10825510  0.39550771  0.99505919     1.93700
Cr174      Cr  0.08338636  0.41181345  0.09760353     1.93200
Cr175      Cr  0.14252603  0.37991863  0.08487603     1.39100
O176        O  0.10987011  0.39479266  0.05985512    -1.24500
O177        O  0.08345714  0.33441132  0.34442396    -0.86800
O178        O  0.49836043  0.28277481  0.36392204    -0.83800
C179        C  0.47826997  0.29071776  0.33430535     0.96700
O180        O  0.47806949  0.28287234  0.29046421    -0.83900
O181        O  0.52655081  0.29967264  0.21209974    -0.86500
C182        C  0.05964794  0.30788625  0.19003015     1.01200
O183        O  0.08096441  0.29197262  0.20244993    -0.79300
O184        O  0.11783087  0.31870560  0.29085776    -0.79500
C185        C  0.11550714  0.34430392  0.31946437     1.01100
O186        O  0.09812856  0.27334995  0.37006512    -0.86800
O187        O  0.50889452  0.21493382  0.36381224    -0.83900
C188        C  0.47849589  0.19013231  0.33794635     0.96700
O189        O  0.46813337  0.20017871  0.29784951    -0.83900
O190        O  0.50512748  0.21861630  0.20160021    -0.86500
C191        C  0.02774502  0.20259363  0.20027814     1.01200
O192        O  0.05140911  0.20840661  0.23442634    -0.79300
O193        O  0.08720120  0.23119238  0.31534263    -0.79500
C194        C  0.11027295  0.25278401  0.34753963     1.01100
Cr195      Cr  0.04577465  0.27441852  0.35447765     1.93700
Cr196      Cr  0.49734786  0.25059343  0.25493639     1.93200
Cr197      Cr  0.08247130  0.26317269  0.26251407     1.39100
O198        O  0.04186929  0.26451532  0.29001453    -1.24500
O199        O  0.16971304  0.24890783  0.01481688    -0.86800
O200        O  0.12186662  0.16640966  0.98918409    -0.83800
C201        C  0.12380176  0.14142703  0.01700486     0.96700
O202        O  0.11005338  0.13614400  0.05899486    -0.83900
O203        O  0.13135933  0.18364880  0.13786457    -0.86500
C204        C  0.14041106  0.21537804  0.16209556     1.01200
O205        O  0.12459302  0.23754110  0.15273510    -0.79300
O206        O  0.15466138  0.28274128  0.06999889    -0.79500
C207        C  0.18043850  0.27921730  0.04306156     1.01100
O208        O  0.10905006  0.26294423  0.98607740    -0.86800
O209        O  0.05104144  0.17430132  0.98733045    -0.83900
C210        C  0.02406298  0.14492246  0.01315148     0.96700
O211        O  0.03162412  0.13387630  0.05418716    -0.83900
O212        O  0.05187901  0.16725662  0.15197408    -0.86500
C213        C  0.03657332  0.18996243  0.15364068     1.01200
O214        O  0.04121558  0.21152689  0.11773179    -0.79300
O215        O  0.06763544  0.25452081  0.04212624    -0.79500
C216        C  0.08848588  0.27550297  0.00784017     1.01100
Cr217      Cr  0.11061417  0.21136268  0.00028205     1.93700
Cr218      Cr  0.08175593  0.15864531  0.09639964     1.93200
Cr219      Cr  0.09755275  0.24463793  0.09384270     1.39100
O220        O  0.09860080  0.20490375  0.06375402    -1.24500
O221        O  0.26013439  0.42251774  0.99740913    -0.86800
O222        O  0.34294492  0.44736837  0.99064255    -0.83800
C223        C  0.36376383  0.47779398  0.01806399     0.96700
O224        O  0.36465111  0.47378797  0.06349436    -0.83900
O225        O  0.32520277  0.45039770  0.15163964    -0.86500
C226        C  0.29547165  0.45727183  0.14652454     1.01200
O227        O  0.27093426  0.44035630  0.11217938    -0.79300
O228        O  0.21723162  0.38098261  0.04963842    -0.79500
C229        C  0.22565882  0.40705050  0.01757988     1.01100
O230        O  0.24039414  0.33629415  0.00923329    -0.86800
O231        O  0.32415597  0.36438005  0.00376299    -0.83900
C232        C  0.35815427  0.37524624  0.02342297     0.96700
O233        O  0.37217122  0.40171424  0.05670137    -0.83900
O234        O  0.32668286  0.37076297  0.14004040    -0.86500
C235        C  0.29477268  0.35821406  0.16511063     1.01200
O236        O  0.27689899  0.37844038  0.16334116    -0.79300
O237        O  0.23568937  0.32559475  0.08829034    -0.79500
C238        C  0.22277676  0.31325038  0.04602034     1.01100
Cr239      Cr  0.29260431  0.39299484  0.00451973     1.93700
Cr240      Cr  0.34427282  0.42264698  0.10076920     1.93200
Cr241      Cr  0.25298017  0.38266114  0.10184479     1.39100
O242        O  0.29728697  0.39907815  0.06815259    -1.24500
O243        O  0.17256809  0.25078889  0.35793508    -0.86800
O244        O  0.22807651  0.22303330  0.35954983    -0.83800
C245        C  0.21345968  0.19294667  0.33060073     0.96700
O246        O  0.21508667  0.19798779  0.28519951    -0.83900
O247        O  0.20349473  0.22950836  0.20029579    -0.86500
C248        C  0.16907449  0.22856844  0.20272296     1.01200
O249        O  0.16200945  0.24680339  0.23619009    -0.79300
O250        O  0.17309824  0.29760405  0.31229397    -0.79500
C251        C  0.15419111  0.26807281  0.34086123     1.01100
O252        O  0.24089516  0.33681059  0.35161468    -0.86800
O253        O  0.29268111  0.30592280  0.34686121    -0.83900
C254        C  0.31333504  0.29266106  0.32614709     0.96700
O255        O  0.29781423  0.26422969  0.29515498    -0.83900
O256        O  0.28834936  0.30170039  0.21451010    -0.86500
C257        C  0.27280322  0.31913982  0.19106052     1.01200
O258        O  0.23504773  0.30440365  0.19375381    -0.79300
O259        O  0.25483523  0.34929848  0.27496143    -0.79500
C260        C  0.25428462  0.36210371  0.31633473     1.01100
Cr261      Cr  0.23341292  0.27864813  0.35015956     1.93700
Cr262      Cr  0.24991074  0.24955300  0.25088617     1.93200
Cr263      Cr  0.20747056  0.29845685  0.25637650     1.39100
O264        O  0.22955203  0.27410443  0.28630158    -1.24500
O265        O  0.32996408  0.05528514  0.89810055    -0.86800
O266        O  0.33352457  0.11387100  0.96222858    -0.83800
C267        C  0.31470091  0.08660263  0.99268759     0.96700
O268        O  0.33394477  0.07238719  0.01504010    -0.83900
O269        O  0.39262154  0.04942313  0.02518092    -0.86500
C270        C  0.38527490  0.01963411  0.99767072     1.01200
O271        O  0.39380635  0.02463383  0.95280465    -0.79300
O272        O  0.37889574  0.04814962  0.86466868    -0.79500
C273        C  0.34178350  0.04010506  0.86557010     1.01100
O274        O  0.39760109  0.11780226  0.85027291    -0.86800
O275        O  0.40916066  0.16887184  0.92569308    -0.83900
C276        C  0.40918485  0.18250572  0.96729411     0.96700
O277        O  0.40042005  0.15953763  0.00476684    -0.83900
O278        O  0.45660043  0.13306906  0.01504927    -0.86500
C279        C  0.48177268  0.12492181  0.99501302     1.01200
O280        O  0.47141241  0.09952193  0.96081188    -0.79300
O281        O  0.45585863  0.12979060  0.87598477    -0.79500
C282        C  0.43532237  0.13861375  0.84715553     1.01100
Cr283      Cr  0.36905915  0.11273969  0.91145891     1.93700
Cr284      Cr  0.39620613  0.10320519  0.01073396     1.93200
Cr285      Cr  0.42352397  0.07679018  0.91589896     1.39100
O286        O  0.39673895  0.09723244  0.94704677    -1.24500
O287        O  0.41140265  0.24270666  0.66167028    -0.86800
O288        O  0.99501438  0.28627095  0.65586353    -0.83800
C289        C  0.02605149  0.31137083  0.67919093     0.96700
O290        O  0.03667589  0.30213361  0.71888408    -0.83900
O291        O  0.99240418  0.29292230  0.80149452    -0.86500
C292        C  0.45964359  0.27708960  0.82671490     1.01200
O293        O  0.43789204  0.23955710  0.82395145    -0.79300
O294        O  0.41631414  0.26215282  0.73739177    -0.79500
C295        C  0.40012814  0.25751947  0.69639071     1.01100
O296        O  0.41950384  0.16566912  0.66609500    -0.86800
O297        O  0.00257442  0.21547689  0.65832601    -0.83900
C298        C  0.02483436  0.21032741  0.68854350     0.96700
O299        O  0.02817638  0.22165275  0.73215690    -0.83900
O300        O  0.98363987  0.20715783  0.81543304    -0.86500
C301        C  0.44947314  0.17231581  0.81150285     1.01200
O302        O  0.42201989  0.16758069  0.78161626    -0.79300
O303        O  0.38174792  0.18153616  0.70664981    -0.79500
C304        C  0.38542501  0.15447366  0.68561701     1.01100
Cr305      Cr  0.45796728  0.22819186  0.66468487     1.93700
Cr306      Cr  0.00753973  0.25458744  0.76475928     1.93200
Cr307      Cr  0.41671163  0.21371235  0.76066513     1.39100
O308        O  0.46189093  0.23199453  0.72929589    -1.24500
O309        O  0.40265899  0.23584064  0.00607347    -0.86800
O310        O  0.45552431  0.31865729  0.02325409    -0.83800
C311        C  0.48113272  0.35200822  0.00402940     0.96700
O312        O  0.47142012  0.36778938  0.96991173    -0.83900
O313        O  0.46033152  0.32771425  0.88363712    -0.86500
C314        C  0.44195834  0.29871438  0.85430908     1.01200
O315        O  0.40396969  0.28271393  0.85359583    -0.79300
O316        O  0.40798531  0.23483824  0.92579436    -0.79500
C317        C  0.40913825  0.22118212  0.96743331     1.01100
O318        O  0.33270163  0.24790231  0.02135465    -0.86800
O319        O  0.38673766  0.33241476  0.03233619    -0.83900
C320        C  0.38165180  0.35679686  0.00531805     0.96700
O321        O  0.39334444  0.36362995  0.96155723    -0.83900
O322        O  0.38149385  0.33113316  0.86932282    -0.86500
C323        C  0.34430604  0.30305681  0.87274376     1.01200
O324        O  0.33509719  0.27930571  0.90770922    -0.79300
O325        O  0.33297631  0.21704571  0.95607957    -0.79500
C326        C  0.31614002  0.21664858  0.99478580     1.01100
Cr327      Cr  0.39523286  0.28536961  0.01578998     1.93700
Cr328      Cr  0.42496563  0.34458821  0.92347114     1.93200
Cr329      Cr  0.37146892  0.25633519  0.91281661     1.39100
O330        O  0.39850852  0.29577350  0.95220955    -1.24500
O331        O  0.24778049  0.16272612  0.02494062    -0.86800
O332        O  0.16301023  0.11002189  0.03214164    -0.83800
C333        C  0.14448196  0.11955197  0.00102571     0.96700
O334        O  0.14463436  0.11215953  0.95654277    -0.83900
O335        O  0.18684538  0.11995691  0.87336613    -0.86500
C336        C  0.22031655  0.15391892  0.87337690     1.01200
O337        O  0.24751042  0.16140066  0.90492153    -0.79300
O338        O  0.28674940  0.14860631  0.98357517    -0.79500
C339        C  0.28201501  0.17494405  0.00482937     1.01100
O340        O  0.25791888  0.08736963  0.02968523    -0.86800
O341        O  0.17402188  0.04073950  0.03106696    -0.83900
C342        C  0.14156791  0.01801666  0.00837496     0.96700
O343        O  0.12948625  0.03054576  0.97289838    -0.83900
O344        O  0.17363652  0.03535526  0.88978885    -0.86500
C345        C  0.20507313  0.05063546  0.86337006     1.01200
O346        O  0.22937192  0.08761099  0.86807658    -0.79300
O347        O  0.25419913  0.06716660  0.95487250    -0.79500
C348        C  0.27098290  0.07349057  0.99584688     1.01100
Cr349      Cr  0.21004649  0.09990817  0.02538058     1.93700
Cr350      Cr  0.16149268  0.07586531  0.92589612     1.93200
Cr351      Cr  0.25230978  0.11513451  0.92967809     1.39100
O352        O  0.20693151  0.09716476  0.96076128    -1.24500
O353        O  0.33606583  0.08081815  0.66941189    -0.86800
O354        O  0.28125370  0.49547890  0.65787237    -0.83800
C355        C  0.28563079  0.47142148  0.68591683     0.96700
O356        O  0.27398132  0.46605945  0.72967517    -0.83900
O357        O  0.28162694  0.49975734  0.81935182    -0.86500
C358        C  0.31852682  0.03021717  0.82082208     1.01200
O359        O  0.33054672  0.05909568  0.79092407    -0.79300
O360        O  0.32972397  0.11432433  0.72876851    -0.79500
C361        C  0.34986060  0.11333126  0.69379295     1.01100
O362        O  0.26539850  0.09224641  0.67274938    -0.86800
O363        O  0.21302033  0.50935255  0.66128930    -0.83900
C364        C  0.18738809  0.47605740  0.68032715     0.96700
O365        O  0.19624046  0.46060236  0.71540346    -0.83900
O366        O  0.20291602  0.50086749  0.80198305    -0.86500
C367        C  0.22122948  0.03063494  0.83134012     1.01200
O368        O  0.25894228  0.04902550  0.83038396    -0.79300
O369        O  0.25213707  0.09436645  0.75060695    -0.79500
C370        C  0.25598106  0.10815579  0.70744089     1.01100
Cr371      Cr  0.27339461  0.04322192  0.67014582     1.93700
Cr372      Cr  0.24055293  0.48522205  0.76405415     1.93200
Cr373      Cr  0.29092711  0.07614642  0.77265215     1.39100
O374        O  0.26816457  0.03461355  0.73427040    -1.24500
O375        O  0.24696833  0.16464635  0.67923120    -0.86800
O376        O  0.21758095  0.21941718  0.66461163    -0.83800
C377        C  0.18873438  0.20879363  0.69465622     0.96700
O378        O  0.19543776  0.21403215  0.73969016    -0.83900
O379        O  0.23245722  0.21218459  0.82624939    -0.86500
C380        C  0.23380441  0.17921208  0.82980046     1.04800
O381        O  0.25381276  0.17076291  0.79990079    -0.79300
O382        O  0.29966283  0.17585799  0.72110379    -0.79500
C383        C  0.26677755  0.15095357  0.70192944     1.01100
O384        O  0.33180297  0.23553754  0.66766179    -0.86800
O385        O  0.29865273  0.28575538  0.66578821    -0.83900
C386        C  0.28768248  0.30858337  0.68631234     0.96700
O387        O  0.26111644  0.29594019  0.71983240    -0.83900
O388        O  0.30031384  0.29516504  0.80382452    -0.86500
C389        C  0.31888903  0.28280442  0.83069311     1.01200
O390        O  0.31201551  0.24729749  0.82640885    -0.79300
O391        O  0.35024165  0.26080813  0.73988910    -0.79500
C392        C  0.35992983  0.25454919  0.69860867     1.01100
Cr393      Cr  0.27337784  0.22644829  0.67331329     1.93700
Cr394      Cr  0.24868437  0.25271293  0.76982624     1.93200
Cr395      Cr  0.30244583  0.21489616  0.76935392     1.39100
O396        O  0.27360287  0.23098325  0.73744866    -1.24500
O397        O  0.40948357  0.50073552  0.34391306    -0.86800
O398        O  0.38196884  0.55595154  0.33099899    -0.83800
C399        C  0.35330744  0.54914889  0.36018179     0.96700
O400        O  0.35985052  0.55838844  0.40460675    -0.83900
O401        O  0.38854984  0.54646368  0.49111845    -0.86500
C402        C  0.38378519  0.51049419  0.49075103     1.01200
O403        O  0.40106472  0.50052353  0.45878970    -0.79300
O404        O  0.45724819  0.00635924  0.39010700    -0.79500
C405        C  0.42688970  0.98391884  0.36538763     1.01100
O406        O  0.49610392  0.57214165  0.34305888    -0.86800
O407        O  0.46372504  0.62274474  0.33363472    -0.83900
C408        C  0.45628598  0.64787502  0.35489426     0.96700
O409        O  0.43266255  0.63787796  0.39135106    -0.83900
O410        O  0.46637546  0.62719939  0.47579556    -0.86500
C411        C  0.47779505  0.60882251  0.50446313     1.01200
O412        O  0.46097679  0.57126259  0.50065538    -0.79300
O413        O  0.00914010  0.58468006  0.42232480    -0.79500
C414        C  0.02152748  0.58505300  0.37966770     1.01100
Cr415      Cr  0.43750081  0.56307162  0.34206732     1.93700
Cr416      Cr  0.41314151  0.59101252  0.43820650     1.93200
Cr417      Cr  0.45616741  0.54284594  0.44025818     1.39100
O418        O  0.43512850  0.56619328  0.40598755    -1.24500
O419        O  0.07557253  0.57234192  0.68342212    -0.86800
O420        O  0.12066764  0.65555837  0.69874220    -0.83800
C421        C  0.14628006  0.68743291  0.67697731     0.96700
O422        O  0.13734795  0.70057204  0.63917873    -0.83900
O423        O  0.12840616  0.66100590  0.55392050    -0.86500
C424        C  0.11200922  0.63128672  0.52552720     1.01200
O425        O  0.07418358  0.61172351  0.52661185    -0.79300
O426        O  0.09379217  0.57947260  0.60650590    -0.79500
C427        C  0.08889154  0.56154747  0.64650334     1.01100
O428        O  0.99898275  0.58054177  0.68587119    -0.86800
O429        O  0.04970477  0.66441718  0.70063944    -0.83900
C430        C  0.04589659  0.68876811  0.67227758     0.96700
O431        O  0.05799448  0.69410489  0.62879857    -0.83900
O432        O  0.04339703  0.65485924  0.54128208    -0.86500
C433        C  0.00827891  0.62231208  0.54367549     1.01200
O434        O  0.00244128  0.59500553  0.57398264    -0.79300
O435        O  0.51336782  0.54739435  0.63533756    -0.79500
C436        C  0.48762306  0.54873848  0.66225599     1.01100
Cr437      Cr  0.06180917  0.61924600  0.68786941     1.93700
Cr438      Cr  0.09031351  0.67490928  0.59287091     1.93200
Cr439      Cr  0.04712973  0.58533331  0.58787895     1.39100
O440        O  0.06675223  0.62772384  0.62400828    -1.24500
O441        O  0.08409820  0.50913090  0.59905136    -0.86800
O442        O  0.06921194  0.95953584  0.51790172    -0.83800
C443        C  0.10692039  0.97716786  0.51467408     0.96700
O444        O  0.12540706  0.96566727  0.54312338    -0.83900
O445        O  0.13579593  0.93190169  0.62750174    -0.86500
C446        C  0.14602794  0.95665675  0.66241816     1.01200
O447        O  0.12110183  0.96468834  0.68327430    -0.79300
O448        O  0.06884395  0.99459292  0.67525749    -0.79500
C449        C  0.08316496  0.52039687  0.64196492     1.01100
O450        O  0.50489913  0.95616932  0.62829214    -0.86800
O451        O  0.99853446  0.89934523  0.55996391    -0.83900
C452        C  0.00907444  0.88249952  0.52812882     0.96700
O453        O  0.04518838  0.88749082  0.52818393    -0.83900
O454        O  0.05697887  0.85959064  0.61586534    -0.86500
C455        C  0.04873718  0.85349023  0.66072266     1.01200
O456        O  0.05593711  0.88235561  0.68938609    -0.79300
O457        O  0.99864816  0.90761233  0.67506814    -0.79500
C458        C  0.48195238  0.92488383  0.65135069     1.01100
Cr459      Cr  0.04040690  0.95462376  0.57818423     1.93700
Cr460      Cr  0.08935041  0.91238290  0.58100429     1.93200
Cr461      Cr  0.06123825  0.93692807  0.67662996     1.39100
O462        O  0.06414875  0.93414603  0.61275492    -1.24500
O463        O  0.07513913  0.57904004  0.33964792    -0.86800
O464        O  0.15898826  0.62594503  0.32783813    -0.83800
C465        C  0.19127291  0.65074593  0.34957116     0.96700
O466        O  0.20442662  0.64059393  0.38636172    -0.83900
O467        O  0.16271909  0.62932724  0.47112370    -0.86500
C468        C  0.13208187  0.61211760  0.49846420     1.01200
O469        O  0.11265583  0.57439801  0.49643547    -0.79300
O470        O  0.07972497  0.59437374  0.41731401    -0.79500
C471        C  0.06293480  0.59074550  0.37666638     1.01100
O472        O  0.08512307  0.50395296  0.33467220    -0.86800
O473        O  0.16888980  0.55609300  0.32215272    -0.83900
C474        C  0.19142138  0.54958152  0.35047471     0.96700
O475        O  0.19626983  0.56008438  0.39449562    -0.83900
O476        O  0.15669625  0.54471674  0.48184659    -0.86500
C477        C  0.12458797  0.50955831  0.47782610     1.01200
O478        O  0.09818998  0.50427232  0.44654191    -0.79300
O479        O  0.04920260  0.01745252  0.38207806    -0.79500
C480        C  0.05192960  0.99210782  0.35609009     1.01100
Cr481      Cr  0.12303568  0.56679291  0.33542590     1.93700
Cr482      Cr  0.17738019  0.59236059  0.43127591     1.93200
Cr483      Cr  0.08726995  0.54843505  0.43455622     1.39100
O484        O  0.13042449  0.56984113  0.39934998    -1.24500
O485        O  0.50250374  0.91853939  0.33505998    -0.86800
O486        O  0.45131879  0.83392168  0.32166436    -0.83800
C487        C  0.45659612  0.81113860  0.35103899     0.96700
O488        O  0.44419728  0.80608600  0.39434797    -0.83900
O489        O  0.44975402  0.84174205  0.48137768    -0.86500
C490        C  0.48516491  0.87324966  0.48344932     1.01200
O491        O  0.49516800  0.90242986  0.45424389    -0.79300
O492        O  0.98993729  0.95247808  0.38817490    -0.79500
C493        C  0.01416227  0.95162430  0.35833327     1.01100
O494        O  0.42825400  0.92715824  0.33244396    -0.86800
O495        O  0.38080094  0.84430399  0.32088759    -0.83900
C496        C  0.35574271  0.81092389  0.34030372     0.96700
O497        O  0.36502322  0.79621294  0.37594506    -0.83900
O498        O  0.36764132  0.83609547  0.46192295    -0.86500
C499        C  0.38326273  0.86516142  0.49169783     1.01200
O500        O  0.42094068  0.88591353  0.49135102    -0.79300
O501        O  0.40876634  0.92448278  0.40845154    -0.79500
C502        C  0.41508102  0.94056756  0.36647596     1.01100
Cr503      Cr  0.43989769  0.87960029  0.33206638     1.93700
Cr504      Cr  0.40823361  0.82322394  0.42597647     1.93200
Cr505      Cr  0.45199191  0.91358117  0.43295731     1.39100
O506        O  0.43325573  0.87134430  0.39599664    -1.24500
O507        O  0.41424456  0.99723984  0.68300096    -0.86800
O508        O  0.32904875  0.94419588  0.69527650    -0.83800
C509        C  0.30645026  0.95040155  0.66677295     0.96700
O510        O  0.30258522  0.94044137  0.62255943    -0.83900
O511        O  0.33967121  0.94921746  0.53462673    -0.86500
C512        C  0.37120960  0.98461904  0.53351667     1.01200
O513        O  0.39995245  0.99392362  0.56313121    -0.79300
O514        O  0.44988650  0.48597417  0.63170886    -0.79500
C515        C  0.44781728  0.50996617  0.66067476     1.01100
O516        O  0.42379029  0.92408729  0.68254147    -0.86800
O517        O  0.34081308  0.87502642  0.69140466    -0.83900
C518        C  0.30772230  0.85048577  0.67101972     0.96700
O519        O  0.29324623  0.86085008  0.63613528    -0.83900
O520        O  0.33428334  0.86707556  0.55046897    -0.86500
C521        C  0.36403995  0.88357281  0.52149921     1.01200
O522        O  0.38481241  0.92115263  0.52323589    -0.79300
O523        O  0.42357287  0.90772444  0.60575516    -0.79500
C524        C  0.43845189  0.91256915  0.64833272     1.01100
Cr525      Cr  0.37569155  0.93451747  0.68329762     1.93700
Cr526      Cr  0.32065094  0.90604752  0.58841976     1.93200
Cr527      Cr  0.41158488  0.95068646  0.58271448     1.39100
O528        O  0.36854733  0.93023384  0.61911228    -1.24500
O529        O  0.24175334  0.91284731  0.35025351    -0.86800
O530        O  0.28467519  0.49681501  0.36468990    -0.83800
C531        C  0.31124723  0.52761375  0.34167797     0.96700
O532        O  0.30365029  0.53874312  0.30154487    -0.83900
O533        O  0.29486930  0.49789596  0.21649828    -0.86500
C534        C  0.27718015  0.96912788  0.18618722     1.01200
O535        O  0.23994102  0.94734341  0.19026768    -0.79300
O536        O  0.26057356  0.91743130  0.27337109    -0.79500
C537        C  0.25649120  0.90181918  0.31532818     1.01100
O538        O  0.16345830  0.91614065  0.34481107    -0.86800
O539        O  0.21165501  0.50090707  0.36041553    -0.83900
C540        C  0.21086967  0.52705540  0.33254887     0.96700
O541        O  0.22501473  0.53334121  0.28990768    -0.83900
O542        O  0.21132655  0.49163047  0.20337205    -0.86500
C543        C  0.17633619  0.95875689  0.20284236     1.01200
O544        O  0.16853913  0.93181340  0.23466925    -0.79300
O545        O  0.18124720  0.88265961  0.29899502    -0.79500
C546        C  0.15388617  0.88344937  0.32228918     1.01100
Cr547      Cr  0.22585886  0.95760872  0.35058240     1.93700
Cr548      Cr  0.25701685  0.51245555  0.25540105     1.93200
Cr549      Cr  0.21386431  0.92265480  0.25145389     1.39100
O550        O  0.23264098  0.96551448  0.28688589    -1.24500
O551        O  0.08263041  0.83490665  0.99266164    -0.86800
O552        O  0.05251417  0.88906552  0.99067661    -0.83800
C553        C  0.02358641  0.87230427  0.02096440     0.96700
O554        O  0.03091896  0.87276024  0.06550847    -0.83900
O555        O  0.06908224  0.86752377  0.14786277    -0.86500
C556        C  0.07520939  0.83726946  0.14954047     1.01200
O557        O  0.09840571  0.83348711  0.11933435    -0.79300
O558        O  0.13544289  0.84102139  0.03166114    -0.79500
C559        C  0.10302080  0.81926578  0.00869049     1.01100
O560        O  0.16660545  0.90344704  0.98327880    -0.86800
O561        O  0.13395434  0.95463707  0.99485167    -0.83900
C562        C  0.12150506  0.97469542  0.01875675     0.96700
O563        O  0.09451844  0.95859299  0.05193005    -0.83900
O564        O  0.13217736  0.95273932  0.13531830    -0.86500
C565        C  0.15415087  0.94169951  0.15764998     1.01200
O566        O  0.15556006  0.91100418  0.14428056    -0.79300
O567        O  0.18690583  0.92876540  0.05366212    -0.79500
C568        C  0.19557855  0.91991896  0.01364997     1.01100
Cr569      Cr  0.10880144  0.89565069  0.99465954     1.93700
Cr570      Cr  0.08327821  0.91166919  0.09687810     1.93200
Cr571      Cr  0.14258309  0.87988909  0.08498260     1.39100
O572        O  0.11009608  0.89481464  0.05947881    -1.24500
O573        O  0.08303913  0.83426096  0.34435505    -0.86800
O574        O  0.49757242  0.78133575  0.36440633    -0.83800
C575        C  0.47901139  0.79102600  0.33452276     0.96700
O576        O  0.48047891  0.78495625  0.29044905    -0.83900
O577        O  0.52727704  0.79909873  0.21173386    -0.86500
C578        C  0.05932120  0.80782480  0.18991887     1.01200
O579        O  0.08069808  0.79198532  0.20240758    -0.79300
O580        O  0.11743770  0.81855355  0.29087182    -0.79500
C581        C  0.11507829  0.84417731  0.31939947     1.01100
O582        O  0.09786380  0.77319324  0.36990202    -0.86800
O583        O  0.50968167  0.71484556  0.36432536    -0.83900
C584        C  0.47868261  0.69058581  0.33895252     0.96700
O585        O  0.46802446  0.70118447  0.29950882    -0.83900
O586        O  0.50484220  0.71756920  0.20346938    -0.86500
C587        C  0.02771766  0.70266774  0.19982730     1.01200
O588        O  0.05122099  0.70833869  0.23410884    -0.79300
O589        O  0.08675045  0.73097219  0.31520793    -0.79500
C590        C  0.10990496  0.75254404  0.34735606     1.01100
Cr591      Cr  0.04548139  0.77426349  0.35441054     1.93700
Cr592      Cr  0.49796276  0.75092171  0.25568651     1.93200
Cr593      Cr  0.08215727  0.76305710  0.26240635     1.39100
O594        O  0.04153677  0.76433400  0.28991537    -1.24500
O595        O  0.17008802  0.74857085  0.01416308    -0.86800
O596        O  0.12152068  0.66608400  0.98838256    -0.83800
C597        C  0.12347042  0.64116062  0.01630087     0.96700
O598        O  0.10976656  0.63599062  0.05830076    -0.83900
O599        O  0.13110663  0.68319493  0.13735586    -0.86500
C600        C  0.14045114  0.71500951  0.16157372     1.01200
O601        O  0.12505312  0.73752725  0.15208598    -0.79300
O602        O  0.15526504  0.78262786  0.06926195    -0.79500
C603        C  0.18095610  0.77895531  0.04233852     1.01100
O604        O  0.10984509  0.76329534  0.98558591    -0.86800
O605        O  0.05122571  0.67495999  0.98661145    -0.83900
C606        C  0.02406155  0.64567667  0.01234674     0.96700
O607        O  0.03148974  0.63432928  0.05327776    -0.83900
O608        O  0.05182415  0.66738978  0.15126252    -0.86500
C609        C  0.03682204  0.69035324  0.15309829     1.01200
O610        O  0.04177939  0.71220136  0.11736834    -0.79300
O611        O  0.06827362  0.75474013  0.04147453    -0.79500
C612        C  0.08922258  0.77579607  0.00730169     1.01100
Cr613      Cr  0.11087725  0.71144144  0.99962050     1.93700
Cr614      Cr  0.08158860  0.65862771  0.09567303     1.93200
Cr615      Cr  0.09811764  0.74483702  0.09323452     1.39100
O616        O  0.09884159  0.70497047  0.06312533    -1.24500
O617        O  0.26059512  0.92268731  0.99766158    -0.86800
O618        O  0.34333601  0.94759993  0.99096488    -0.83800
C619        C  0.36395058  0.97801337  0.01847416     0.96700
O620        O  0.36470819  0.97385818  0.06391434    -0.83900
O621        O  0.32467297  0.95001362  0.15176232    -0.86500
C622        C  0.29475421  0.95661148  0.14654327     1.01200
O623        O  0.27016243  0.93943161  0.11231338    -0.79300
O624        O  0.21737976  0.88038473  0.04902375    -0.79500
C625        C  0.22601546  0.90696117  0.01757407     1.01100
O626        O  0.24085709  0.83626183  0.00870867    -0.86800
O627        O  0.32452664  0.86455478  0.00373910    -0.83900
C628        C  0.35835542  0.87519716  0.02368113     0.96700
O629        O  0.37229515  0.90157858  0.05711082    -0.83900
O630        O  0.32661145  0.87053670  0.14027865    -0.86500
C631        C  0.29456283  0.85775504  0.16514501     1.01200
O632        O  0.27652657  0.87780939  0.16323946    -0.79300
O633        O  0.23625507  0.82510704  0.08762629    -0.79500
C634        C  0.22334137  0.81292996  0.04532078     1.01100
Cr635      Cr  0.29300305  0.89312205  0.00451189     1.93700
Cr636      Cr  0.34421385  0.92250326  0.10106788     1.93200
Cr637      Cr  0.25285484  0.88197947  0.10155277     1.39100
O638        O  0.29739917  0.89891057  0.06818320    -1.24500
O639        O  0.17225101  0.75061389  0.35775588    -0.86800
O640        O  0.22768725  0.72277798  0.35956739    -0.83800
C641        C  0.21309626  0.69261507  0.33071055     0.96700
O642        O  0.21476969  0.69754865  0.28528696    -0.83900
O643        O  0.20339074  0.72893148  0.20008948    -0.86500
C644        C  0.16891502  0.72787943  0.20242088     1.01200
O645        O  0.16172293  0.74594030  0.23597230    -0.79300
O646        O  0.17257862  0.79708330  0.31163109    -0.79500
C647        C  0.15379758  0.76776070  0.34049855     1.01100
O648        O  0.24052470  0.83658596  0.35104572    -0.86800
O649        O  0.29249905  0.80564924  0.34676637    -0.83900
C650        C  0.31312685  0.79223075  0.32625275     0.96700
O651        O  0.29753066  0.76373517  0.29534534    -0.83900
O652        O  0.28817711  0.80123030  0.21455314    -0.86500
C653        C  0.27261265  0.81858594  0.19095453     1.01200
O654        O  0.23481766  0.80368716  0.19342557    -0.79300
O655        O  0.25417835  0.84888279  0.27428775    -0.79500
C656        C  0.25367373  0.86176706  0.31562919     1.01100
Cr657      Cr  0.23311829  0.77842602  0.34995192     1.93700
Cr658      Cr  0.24968729  0.74907204  0.25091091     1.93200
Cr659      Cr  0.20704226  0.79780724  0.25591352     1.39100
O660        O  0.22927717  0.77370635  0.28611490    -1.24500
O661        O  0.32977422  0.55489621  0.89828206    -0.86800
O662        O  0.33359875  0.61382206  0.96227449    -0.83800
C663        C  0.31463387  0.58643204  0.99252801     0.96700
O664        O  0.33382220  0.57213054  0.01481365    -0.83900
O665        O  0.39229021  0.54900592  0.02485871    -0.86500
C666        C  0.38514441  0.51932813  0.99730120     1.01200
O667        O  0.39392808  0.52438839  0.95252298    -0.79300
O668        O  0.37864202  0.54767664  0.86474339    -0.79500
C669        C  0.34149547  0.53951384  0.86586692     1.01100
O670        O  0.39723043  0.61724935  0.85010693    -0.86800
O671        O  0.40908029  0.66863024  0.92551843    -0.83900
C672        C  0.40958620  0.68234462  0.96725307     0.96700
O673        O  0.40073783  0.65931201  0.00468404    -0.83900
O674        O  0.45648187  0.63230880  0.01523191    -0.86500
C675        C  0.48169414  0.62426773  0.99510362     1.01200
O676        O  0.47150778  0.59933869  0.96039231    -0.79300
O677        O  0.45560465  0.62947781  0.87560452    -0.79500
C678        C  0.43492902  0.63819509  0.84687511     1.01100
Cr679      Cr  0.36892828  0.61242518  0.91141127     1.93700
Cr680      Cr  0.39612543  0.60281410  0.01059310     1.93200
Cr681      Cr  0.42347381  0.57651927  0.91564263     1.39100
O682        O  0.39671433  0.59695684  0.94690091    -1.24500
O683        O  0.41085140  0.74211937  0.66143075    -0.86800
O684        O  0.99557120  0.78649116  0.65526286    -0.83800
C685        C  0.02622259  0.81146156  0.67929227     0.96700
O686        O  0.03613627  0.80190443  0.71929817    -0.83900
O687        O  0.99070245  0.79222491  0.80115349    -0.86500
C688        C  0.45949616  0.77694942  0.82635693     1.01200
O689        O  0.43767694  0.73942938  0.82364860    -0.79300
O690        O  0.41639851  0.76212026  0.73691727    -0.79500
C691        C  0.39982880  0.75715810  0.69615123     1.01100
O692        O  0.41884717  0.66507533  0.66616009    -0.86800
O693        O  0.00289784  0.71558664  0.65809501    -0.83900
C694        C  0.02445615  0.70991311  0.68878555     0.96700
O695        O  0.02709081  0.72091557  0.73250226    -0.83900
O696        O  0.98124414  0.70631361  0.81482871    -0.86500
C697        C  0.44890005  0.67196523  0.81135086     1.01200
O698        O  0.42129791  0.66728405  0.78171962    -0.79300
O699        O  0.38109125  0.68106279  0.70661595    -0.79500
C700        C  0.38477265  0.65393714  0.68570243     1.01100
Cr701      Cr  0.45738686  0.72756211  0.66444671     1.93700
Cr702      Cr  0.00611847  0.75395848  0.76462479     1.93200
Cr703      Cr  0.41629513  0.71349380  0.76046884     1.39100
O704        O  0.46140052  0.73148220  0.72903719    -1.24500
O705        O  0.40284189  0.73551550  0.00623362    -0.86800
O706        O  0.45523266  0.81837102  0.02372043    -0.83800
C707        C  0.48086599  0.85161733  0.00429901     0.96700
O708        O  0.47128933  0.86728828  0.96989332    -0.83900
O709        O  0.46026936  0.82756086  0.88339061    -0.86500
C710        C  0.44192781  0.79861691  0.85399668     1.01200
O711        O  0.40397296  0.78245145  0.85361219    -0.79300
O712        O  0.41013298  0.73576466  0.92620824    -0.79500
C713        C  0.41031605  0.72142515  0.96772455     1.01100
O714        O  0.33242596  0.74767820  0.02032865    -0.86800
O715        O  0.38649254  0.83195745  0.03250788    -0.83900
C716        C  0.38168274  0.85654956  0.00559032     0.96700
O717        O  0.39329092  0.86326295  0.96180864    -0.83900
O718        O  0.38080754  0.83022472  0.86990118    -0.86500
C719        C  0.34383680  0.80155033  0.87324373     1.01200
O720        O  0.33495597  0.77743540  0.90785542    -0.79300
O721        O  0.33467724  0.71604759  0.95681184    -0.79500
C722        C  0.31666297  0.71605342  0.99437887     1.01100
Cr723      Cr  0.39506959  0.78498547  0.01584834     1.93700
Cr724      Cr  0.42477817  0.84416104  0.92355703     1.93200
Cr725      Cr  0.37233149  0.75572379  0.91309377     1.39100
O726        O  0.39865748  0.79543008  0.95232985    -1.24500
O727        O  0.24780067  0.66263942  0.02411453    -0.86800
O728        O  0.16298429  0.61012099  0.03164624    -0.83800
C729        C  0.14417539  0.61926804  0.00048168     0.96700
O730        O  0.14409273  0.61151588  0.95608542    -0.83900
O731        O  0.18610258  0.61901682  0.87296597    -0.86500
C732        C  0.21947164  0.65306013  0.87294114     1.01200
O733        O  0.24676321  0.66065212  0.90437428    -0.79300
O734        O  0.28636086  0.64808314  0.98262801    -0.79500
C735        C  0.28193160  0.67458273  0.00387887     1.01100
O736        O  0.25773102  0.58715668  0.02927530    -0.86800
O737        O  0.17382054  0.54073856  0.03122242    -0.83900
C738        C  0.14133937  0.51788452  0.00866881     0.96700
O739        O  0.12918565  0.53014168  0.97302434    -0.83900
O740        O  0.17315552  0.53453961  0.88999138    -0.86500
C741        C  0.20447934  0.54976313  0.86339938     1.01200
O742        O  0.22862343  0.58679640  0.86769062    -0.79300
O743        O  0.25409154  0.56680162  0.95448010    -0.79500
C744        C  0.27085924  0.57325115  0.99551100     1.01100
Cr745      Cr  0.20992111  0.59982696  0.02497640     1.93700
Cr746      Cr  0.16099323  0.57516518  0.92573625     1.93200
Cr747      Cr  0.25180168  0.61452844  0.92909075     1.39100
O748        O  0.20655002  0.59665930  0.96040604    -1.24500
O749        O  0.33539561  0.58027847  0.66969426    -0.86800
O750        O  0.28177355  0.99599248  0.65736174    -0.83800
C751        C  0.28579211  0.97168367  0.68539028     0.96700
O752        O  0.27420856  0.96653877  0.72918551    -0.83900
O753        O  0.28209391  0.00062784  0.81876170    -0.86500
C754        C  0.31808907  0.52930690  0.82123894     1.01200
O755        O  0.33006527  0.55801597  0.79115469    -0.79300
O756        O  0.32952830  0.61363548  0.72958829    -0.79500
C757        C  0.34935500  0.61274278  0.69421264     1.01100
O758        O  0.26468247  0.59138806  0.67347449    -0.86800
O759        O  0.21365497  0.01008951  0.66051196    -0.83900
C760        C  0.18794359  0.97688629  0.67969479     0.96700
O761        O  0.19668210  0.96151332  0.71495260    -0.83900
O762        O  0.20339975  0.00183818  0.80153716    -0.86500
C763        C  0.22072441  0.52965920  0.83177809     1.01200
O764        O  0.25845345  0.54803736  0.83095879    -0.79300
O765        O  0.25198757  0.59386122  0.75147392    -0.79500
C766        C  0.25553458  0.60742947  0.70821585     1.01100
Cr767      Cr  0.27275764  0.54253600  0.67073595     1.93700
Cr768      Cr  0.24097812  0.98603753  0.76355910     1.93200
Cr769      Cr  0.29058872  0.57533021  0.77331114     1.39100
O770        O  0.26765969  0.53387528  0.73484160    -1.24500
O771        O  0.24646773  0.66377951  0.67962649    -0.86800
O772        O  0.21705674  0.71841456  0.66476786    -0.83800
C773        C  0.18837501  0.70830620  0.69492205     0.96700
O774        O  0.19522611  0.71398838  0.73987052    -0.83900
O775        O  0.23194506  0.71155874  0.82617712    -0.86500
C776        C  0.23282732  0.67832426  0.82940284     1.04800
O777        O  0.25262063  0.66973326  0.79936521    -0.79300
O778        O  0.29925604  0.67513427  0.72122181    -0.79500
C779        C  0.26630813  0.65015561  0.70236274     1.01100
O780        O  0.33134567  0.73487156  0.66790818    -0.86800
O781        O  0.29808321  0.78491829  0.66541626    -0.83900
C782        C  0.28749137  0.80800647  0.68606111     0.96700
O783        O  0.26134115  0.79569649  0.72003798    -0.83900
O784        O  0.30034943  0.79441943  0.80399440    -0.86500
C785        C  0.31829449  0.78156999  0.83117896     1.01200
O786        O  0.31089945  0.74589753  0.82685278    -0.79300
O787        O  0.34983827  0.75960909  0.74049948    -0.79500
C788        C  0.35946234  0.75373178  0.69893255     1.01100
Cr789      Cr  0.27288332  0.72560322  0.67341709     1.93700
Cr790      Cr  0.24857037  0.75230741  0.76992502     1.93200
Cr791      Cr  0.30168753  0.71384091  0.76954151     1.39100
O792        O  0.27323511  0.73033648  0.73750884    -1.24500
O793        O  0.90995393  0.00070512  0.34392884    -0.86800
O794        O  0.88191464  0.05541491  0.33066947    -0.83800
C795        C  0.85331023  0.04898241  0.35977254     0.96700
O796        O  0.85990208  0.05846662  0.40414421    -0.83900
O797        O  0.88834416  0.04604920  0.49074511    -0.86500
C798        C  0.88393250  0.01020131  0.49046299     1.01200
O799        O  0.90133077  0.00037109  0.45849785    -0.79300
O800        O  0.95714993  0.50627257  0.39054691    -0.79500
C801        C  0.92683322  0.48389388  0.36573774     1.01100
O802        O  0.99641657  0.07250259  0.34321719    -0.86800
O803        O  0.96345655  0.12259288  0.33325437    -0.83900
C804        C  0.95621601  0.14778399  0.35469560     0.96700
O805        O  0.93289494  0.13790430  0.39143517    -0.83900
O806        O  0.96625077  0.12693851  0.47597968    -0.86500
C807        C  0.97754943  0.10846988  0.50466564     1.01200
O808        O  0.96067237  0.07095503  0.50072597    -0.79300
O809        O  0.50925778  0.08492067  0.42155127    -0.79500
C810        C  0.52160811  0.08513094  0.37893698     1.01100
Cr811      Cr  0.93762636  0.06299023  0.34194207     1.93700
Cr812      Cr  0.91311304  0.09086494  0.43806954     1.93200
Cr813      Cr  0.95635278  0.04292549  0.44020881     1.39100
O814        O  0.93517574  0.06612662  0.40586622    -1.24500
O815        O  0.57544063  0.07256972  0.68294456    -0.86800
O816        O  0.62076242  0.15588743  0.69810243    -0.83800
C817        C  0.64632022  0.18790098  0.67650415     0.96700
O818        O  0.63740826  0.20106974  0.63873127    -0.83900
O819        O  0.62853928  0.16142402  0.55351179    -0.86500
C820        C  0.61209438  0.13169585  0.52514653     1.01200
O821        O  0.57425987  0.11218455  0.52618849    -0.79300
O822        O  0.59348304  0.07945957  0.60595818    -0.79500
C823        C  0.58868510  0.06166383  0.64605856     1.01100
O824        O  0.49897058  0.08094184  0.68550106    -0.86800
O825        O  0.55000202  0.16490578  0.70006656    -0.83900
C826        C  0.54620260  0.18926368  0.67171636     0.96700
O827        O  0.55814557  0.19453186  0.62819204    -0.83900
O828        O  0.54363206  0.15538477  0.54061850    -0.86500
C829        C  0.50845812  0.12291831  0.54305486     1.01200
O830        O  0.50251553  0.09573336  0.57358403    -0.79300
O831        O  0.01351281  0.04710718  0.63570271    -0.79500
C832        C  0.98772558  0.04843421  0.66253997     1.01100
Cr833      Cr  0.56187558  0.11961091  0.68734674     1.93700
Cr834      Cr  0.59045139  0.17534986  0.59234886     1.93200
Cr835      Cr  0.54704293  0.08574210  0.58737580     1.39100
O836        O  0.56684028  0.12812154  0.62350200    -1.24500
O837        O  0.58421580  0.00925712  0.59890833    -0.86800
O838        O  0.56887538  0.45957746  0.51781272    -0.83800
C839        C  0.60657612  0.47727870  0.51461139     0.96700
O840        O  0.62510959  0.46588400  0.54309957    -0.83900
O841        O  0.63556796  0.43220586  0.62747304    -0.86500
C842        C  0.64573842  0.45679419  0.66257170     1.01200
O843        O  0.62079813  0.46483279  0.68338528    -0.79300
O844        O  0.56870014  0.49491586  0.67498775    -0.79500
C845        C  0.58322410  0.02057156  0.64176865     1.01100
O846        O  0.00478042  0.45581892  0.62836131    -0.86800
O847        O  0.49824642  0.39958830  0.56008457    -0.83900
C848        C  0.50874184  0.38275182  0.52821102     0.96700
O849        O  0.54483438  0.38767175  0.52821296    -0.83900
O850        O  0.55680715  0.35989431  0.61582496    -0.86500
C851        C  0.54852666  0.35380252  0.66065901     1.01200
O852        O  0.55549622  0.38261244  0.68930271    -0.79300
O853        O  0.49838929  0.40799456  0.67486984    -0.79500
C854        C  0.98195905  0.42458119  0.65159870     1.01100
Cr855      Cr  0.54014665  0.45486294  0.57805841     1.93700
Cr856      Cr  0.58908837  0.41263851  0.58097046     1.93200
Cr857      Cr  0.56094740  0.43721734  0.67653110     1.39100
O858        O  0.56389082  0.43441362  0.61268486    -1.24500
O859        O  0.57516539  0.07889723  0.33921031    -0.86800
O860        O  0.65897890  0.12583397  0.32757684    -0.83800
C861        C  0.69125857  0.15069316  0.34927931     0.96700
O862        O  0.70442632  0.14060887  0.38612579    -0.83900
O863        O  0.66275447  0.12957930  0.47084356    -0.86500
C864        C  0.63210058  0.11245365  0.49815974     1.01200
O865        O  0.61261136  0.07474109  0.49621882    -0.79300
O866        O  0.57979505  0.09458607  0.41675728    -0.79500
C867        C  0.56299601  0.09078908  0.37606866     1.01100
O868        O  0.58518471  0.00384454  0.33484327    -0.86800
O869        O  0.66892605  0.05603996  0.32229114    -0.83900
C870        C  0.69139948  0.04952501  0.35068115     0.96700
O871        O  0.69622089  0.06006252  0.39468625    -0.83900
O872        O  0.65662540  0.04493351  0.48196422    -0.86500
C873        C  0.62449400  0.00978234  0.47799267     1.01200
O874        O  0.59804854  0.00449016  0.44677285    -0.79300
O875        O  0.54883773  0.51739909  0.38207287    -0.79500
C876        C  0.55150501  0.49196481  0.35619333     1.01100
Cr877      Cr  0.62306342  0.06669006  0.33533379     1.93700
Cr878      Cr  0.67735958  0.09247391  0.43122575     1.93200
Cr879      Cr  0.58723876  0.04865244  0.43441071     1.39100
O880        O  0.63041651  0.06990146  0.39926447    -1.24500
O881        O  0.00244803  0.41862585  0.33477632    -0.86800
O882        O  0.95124597  0.33399579  0.32118277    -0.83800
C883        C  0.95635379  0.31105570  0.35047369     0.96700
O884        O  0.94400481  0.30598084  0.39379183    -0.83900
O885        O  0.94985359  0.34155166  0.48100934    -0.86500
C886        C  0.98526920  0.37308209  0.48315747     1.01200
O887        O  0.99525907  0.40225415  0.45394223    -0.79300
O888        O  0.48926055  0.45254142  0.38788616    -0.79500
C889        C  0.51365190  0.45158141  0.35837560     1.01100
O890        O  0.92815673  0.42719578  0.33247759    -0.86800
O891        O  0.88077962  0.34429627  0.32048898    -0.83900
C892        C  0.85572408  0.31086569  0.33980844     0.96700
O893        O  0.86491201  0.29622425  0.37561472    -0.83900
O894        O  0.86768653  0.33594832  0.46187814    -0.86500
C895        C  0.88336336  0.36490544  0.49179744     1.01200
O896        O  0.92104690  0.38569701  0.49130538    -0.79300
O897        O  0.90879081  0.42438574  0.40857700    -0.79500
C898        C  0.91504377  0.44054547  0.36664858     1.01100
Cr899      Cr  0.93984238  0.37965600  0.33180829     1.93700
Cr900      Cr  0.90819753  0.32312455  0.42564714     1.93200
Cr901      Cr  0.95203726  0.41344015  0.43285949     1.39100
O902        O  0.93322453  0.37127765  0.39575417    -1.24500
O903        O  0.91437955  0.49713569  0.68317408    -0.86800
O904        O  0.82922800  0.44429039  0.69564281    -0.83800
C905        C  0.80637304  0.45013614  0.66713419     0.96700
O906        O  0.80244037  0.43994034  0.62298819    -0.83900
O907        O  0.83965576  0.44877251  0.53509294    -0.86500
C908        C  0.87117367  0.48419312  0.53388918     1.01200
O909        O  0.90005365  0.49353745  0.56333159    -0.79300
O910        O  0.95012429  0.98566524  0.63196424    -0.79500
C911        C  0.94797986  0.00964839  0.66088235     1.01100
O912        O  0.92393809  0.42397397  0.68302995    -0.86800
O913        O  0.84104993  0.37515442  0.69227879    -0.83900
C914        C  0.80805403  0.35049609  0.67187201     0.96700
O915        O  0.79358020  0.36058154  0.63673787    -0.83900
O916        O  0.83450877  0.36670277  0.55099048    -0.86500
C917        C  0.86418094  0.38322241  0.52189145     1.01200
O918        O  0.88490632  0.42078976  0.52365353    -0.79300
O919        O  0.92344791  0.40727258  0.60632847    -0.79500
C920        C  0.93845250  0.41225679  0.64884113     1.01100
Cr921      Cr  0.87586371  0.43450865  0.68375973     1.93700
Cr922      Cr  0.82075083  0.40565368  0.58892099     1.93200
Cr923      Cr  0.91163445  0.45030867  0.58312289     1.39100
O924        O  0.86863995  0.43000351  0.61957328    -1.24500
O925        O  0.74208633  0.41289062  0.34986791    -0.86800
O926        O  0.78479218  0.99649939  0.36430929    -0.83800
C927        C  0.81118171  0.02744894  0.34137996     0.96700
O928        O  0.80328506  0.03875330  0.30153591    -0.83900
O929        O  0.79441525  0.99779499  0.21649044    -0.86500
C930        C  0.77740283  0.46953096  0.18626929     1.01200
O931        O  0.74013953  0.44799811  0.19019429    -0.79300
O932        O  0.76073771  0.41753332  0.27288291    -0.79500
C933        C  0.75673355  0.40188596  0.31482085     1.01100
O934        O  0.66376091  0.41600814  0.34479706    -0.86800
O935        O  0.71209946  0.00121078  0.36077742    -0.83900
C936        C  0.71082972  0.02701077  0.33274780     0.96700
O937        O  0.72440034  0.03290343  0.28985996    -0.83900
O938        O  0.71095573  0.99130690  0.20324163    -0.86500
C939        C  0.67651667  0.45920004  0.20293527     1.01200
O940        O  0.66871790  0.43219426  0.23468779    -0.79300
O941        O  0.68148766  0.38271624  0.29852071    -0.79500
C942        C  0.65421142  0.38340411  0.32211752     1.01100
Cr943      Cr  0.72605821  0.45753985  0.35058012     1.93700
Cr944      Cr  0.75655948  0.01224242  0.25538971     1.93200
Cr945      Cr  0.71405425  0.42293657  0.25120336     1.39100
O946        O  0.73283951  0.46564760  0.28691236    -1.24500
O947        O  0.58273907  0.33519890  0.99265953    -0.86800
O948        O  0.55264348  0.38936037  0.99071661    -0.83800
C949        C  0.52373623  0.37261303  0.02103431     0.96700
O950        O  0.53109609  0.37306991  0.06556870    -0.83900
O951        O  0.56928216  0.36802365  0.14799873    -0.86500
C952        C  0.57547285  0.33782263  0.14979898     1.01200
O953        O  0.59868430  0.33400884  0.11963706    -0.79300
O954        O  0.63545344  0.34118681  0.03182809    -0.79500
C955        C  0.60310800  0.31952292  0.00863506     1.01100
O956        O  0.66668457  0.40359572  0.98326365    -0.86800
O957        O  0.63407098  0.45487098  0.99478999    -0.83900
C958        C  0.62154068  0.47490319  0.01860117     0.96700
O959        O  0.59459114  0.45883446  0.05181049    -0.83900
O960        O  0.63231275  0.45315927  0.13538237    -0.86500
C961        C  0.65438928  0.44220320  0.15765634     1.01200
O962        O  0.65594092  0.41160549  0.14418152    -0.79300
O963        O  0.68702972  0.42909779  0.05352406    -0.79500
C964        C  0.69568440  0.42014970  0.01358253     1.01100
Cr965      Cr  0.60891776  0.39590632  0.99467317     1.93700
Cr966      Cr  0.58343625  0.41203619  0.09689640     1.93200
Cr967      Cr  0.64277788  0.38028588  0.08502419     1.39100
O968        O  0.61024161  0.39513590  0.05951742    -1.24500
O969        O  0.58351855  0.33429229  0.34449203    -0.86800
O970        O  0.99804433  0.28218426  0.36377668    -0.83800
C971        C  0.97863293  0.29085411  0.33397722     0.96700
O972        O  0.97911844  0.28372802  0.29005750    -0.83900
O973        O  0.02659321  0.29905542  0.21173127    -0.86500
C974        C  0.55954183  0.30839544  0.19017987     1.01200
O975        O  0.58070054  0.29223358  0.20235759    -0.79300
O976        O  0.61768337  0.31854357  0.29070111    -0.79500
C977        C  0.61545258  0.34414985  0.31937063     1.01100
O978        O  0.59788591  0.27293705  0.36980499    -0.86800
O979        O  0.00924357  0.21499958  0.36400700    -0.83900
C980        C  0.97846043  0.19043297  0.33849904     0.96700
O981        O  0.96793117  0.20062870  0.29867207    -0.83900
O982        O  0.00478887  0.21770122  0.20257781    -0.86500
C983        C  0.52778683  0.20317891  0.19936888     1.01200
O984        O  0.55095913  0.20843784  0.23387873    -0.79300
O985        O  0.58683831  0.23096196  0.31480826    -0.79500
C986        C  0.60997982  0.25243699  0.34702557     1.01100
Cr987      Cr  0.54567397  0.27436897  0.35436858     1.93700
Cr988      Cr  0.99748140  0.25052290  0.25515487     1.93200
Cr989      Cr  0.58218717  0.26314528  0.26219690     1.39100
O990        O  0.54169799  0.26458505  0.28985423    -1.24500
O991        O  0.67011451  0.24877593  0.01376794    -0.86800
O992        O  0.62133558  0.16613076  0.98804562    -0.83800
C993        C  0.62317058  0.14113932  0.01596813     0.96700
O994        O  0.60972701  0.13621050  0.05807022    -0.83900
O995        O  0.63116122  0.18357368  0.13692461    -0.86500
C996        C  0.64044832  0.21533999  0.16116489     1.01200
O997        O  0.62509120  0.23790133  0.15165819    -0.79300
O998        O  0.65525370  0.28288551  0.06875900    -0.79500
C999        C  0.68096695  0.27917810  0.04193291     1.01100
O1000       O  0.60992761  0.26357548  0.98516909    -0.86800
O1001       O  0.55119591  0.17508808  0.98636298    -0.83900
C1002       C  0.52414592  0.14574781  0.01216656     0.96700
O1003       O  0.53162860  0.13453784  0.05312458    -0.83900
O1004       O  0.55193899  0.16786552  0.15093352    -0.86500
C1005       C  0.53691688  0.19081660  0.15268730     1.01200
O1006       O  0.54180650  0.21255906  0.11688195    -0.79300
O1007       O  0.56823121  0.25484307  0.04091734    -0.79500
C1008       C  0.58928428  0.27604364  0.00691301     1.01100
Cr1009     Cr  0.61087310  0.21163518  0.99923135     1.93700
Cr1010     Cr  0.58166553  0.15896274  0.09539997     1.93200
Cr1011     Cr  0.59812519  0.24512922  0.09274630     1.39100
O1012       O  0.59886942  0.20523799  0.06273716    -1.24500
O1013       O  0.76077046  0.42301269  0.99784809    -0.86800
O1014       O  0.84353376  0.44783591  0.99137096    -0.83800
C1015       C  0.86407201  0.47822809  0.01894106     0.96700
O1016       O  0.86475664  0.47403297  0.06436851    -0.83900
O1017       O  0.82470419  0.45001913  0.15208206    -0.86500
C1018       C  0.79485445  0.45671159  0.14679474     1.01200
O1019       O  0.77021764  0.43949841  0.11260180    -0.79300
O1020       O  0.71745041  0.38064584  0.04911076    -0.79500
C1021       C  0.72613261  0.40721928  0.01763185     1.01100
O1022       O  0.74091587  0.33658006  0.00858434    -0.86800
O1023       O  0.82447092  0.36469443  0.00390326    -0.83900
C1024       C  0.85825352  0.37523334  0.02387388     0.96700
O1025       O  0.87229311  0.40168728  0.05722781    -0.83900
O1026       O  0.82662923  0.37053561  0.14024901    -0.86500
C1027       C  0.79452824  0.35767363  0.16500035     1.01200
O1028       O  0.77652871  0.37776562  0.16323192    -0.79300
O1029       O  0.73620866  0.32518892  0.08744714    -0.79500
C1030       C  0.72335478  0.31313211  0.04508178     1.01100
Cr1031     Cr  0.79310861  0.39339009  0.00466315     1.93700
Cr1032     Cr  0.84423720  0.42257813  0.10128427     1.93200
Cr1033     Cr  0.75286384  0.38206075  0.10162889     1.39100
O1034       O  0.79743538  0.39905873  0.06833489    -1.24500
O1035       O  0.67238224  0.25061070  0.35737149    -0.86800
O1036       O  0.72780475  0.22277156  0.35908088    -0.83800
C1037       C  0.71305453  0.19254686  0.33030885     0.96700
O1038       O  0.71456429  0.19741830  0.28488118    -0.83900
O1039       O  0.70318863  0.22887242  0.19972282    -0.86500
C1040       C  0.66880522  0.22801517  0.20204533     1.01200
O1041       O  0.66165720  0.24605566  0.23564346    -0.79300
O1042       O  0.67269152  0.29712034  0.31134528    -0.79500
C1043       C  0.65390110  0.26773841  0.34015220     1.01100
O1044       O  0.74069568  0.33662198  0.35048696    -0.86800
O1045       O  0.79255519  0.30566368  0.34603735    -0.83900
C1046       C  0.81313010  0.29215449  0.32562783     0.96700
O1047       O  0.79746783  0.26356363  0.29481943    -0.83900
O1048       O  0.78804143  0.30097312  0.21401605    -0.86500
C1049       C  0.77251899  0.31841681  0.19052490     1.01200
O1050       O  0.73473722  0.30358302  0.19298712    -0.79300
O1051       O  0.75430056  0.34889977  0.27373152    -0.79500
C1052       C  0.75387012  0.36180875  0.31507129     1.01100
Cr1053     Cr  0.73322432  0.27843057  0.34942859     1.93700
Cr1054     Cr  0.74953788  0.24890144  0.25043412     1.93200
Cr1055     Cr  0.70706390  0.29783633  0.25550165     1.39100
O1056       O  0.72925989  0.27365524  0.28563035    -1.24500
O1057       O  0.83038343  0.05658418  0.89790381    -0.86800
O1058       O  0.83450963  0.11512560  0.96254643    -0.83800
C1059       C  0.81481294  0.08702489  0.99171345     0.96700
O1060       O  0.83357308  0.07230397  0.01417442    -0.83900
O1061       O  0.89177595  0.04875273  0.02506116    -0.86500
C1062       C  0.88479473  0.01918500  0.99743590     1.01200
O1063       O  0.89361395  0.02437641  0.95266359    -0.79300
O1064       O  0.87888808  0.04849639  0.86475716    -0.79500
C1065       C  0.84191634  0.04098584  0.86554797     1.01100
O1066       O  0.89854527  0.11847746  0.85096852    -0.86800
O1067       O  0.91073226  0.16967397  0.92699024    -0.83900
C1068       C  0.91115880  0.18308097  0.96892803     0.96700
O1069       O  0.90126986  0.15949442  0.00591780    -0.83900
O1070       O  0.95638490  0.13189109  0.01629968    -0.86500
C1071       C  0.98166171  0.12402928  0.99595362     1.01200
O1072       O  0.97147197  0.09911063  0.96120967    -0.79300
O1073       O  0.95655173  0.12977031  0.87656754    -0.79500
C1074       C  0.93626358  0.13895052  0.84785662     1.01100
Cr1075     Cr  0.87004494  0.11375776  0.91194023     1.93700
Cr1076     Cr  0.89601850  0.10273205  0.01110633     1.93200
Cr1077     Cr  0.92364070  0.07670636  0.91613711     1.39100
O1078       O  0.89708697  0.09738793  0.94739452    -1.24500
O1079       O  0.91085463  0.24236424  0.66378981    -0.86800
O1080       O  0.49552247  0.28677145  0.65541476    -0.83800
C1081       C  0.52627930  0.31181158  0.67922680     0.96700
O1082       O  0.53655838  0.30233747  0.71901842    -0.83900
O1083       O  0.49152464  0.29258693  0.80114106    -0.86500
C1084       C  0.96084912  0.27734777  0.82759034     1.01200
O1085       O  0.93950380  0.23976700  0.82529221    -0.79300
O1086       O  0.91660726  0.26213246  0.73945496    -0.79500
C1087       C  0.89972241  0.25702875  0.69885841     1.01100
O1088       O  0.91874503  0.16532241  0.66746130    -0.86800
O1089       O  0.50318733  0.21605898  0.65784654    -0.83900
C1090       C  0.52492911  0.21047107  0.68834960     0.96700
O1091       O  0.52784819  0.22154976  0.73204978    -0.83900
O1092       O  0.48255372  0.20688459  0.81485170    -0.86500
C1093       C  0.95058323  0.17255423  0.81217143     1.01200
O1094       O  0.92305685  0.16777800  0.78244476    -0.79300
O1095       O  0.88150553  0.18122879  0.70917078    -0.79500
C1096       C  0.88481407  0.15423303  0.68736542     1.01100
Cr1097     Cr  0.95744261  0.22779733  0.66574762     1.93700
Cr1098     Cr  0.50695882  0.25446123  0.76445713     1.93200
Cr1099     Cr  0.91736151  0.21375529  0.76236127     1.39100
O1100       O  0.96211835  0.23191868  0.73022470    -1.24500
O1101       O  0.90401291  0.23600798  0.00812393    -0.86800
O1102       O  0.95529870  0.31912556  0.02513302    -0.83800
C1103       C  0.98085092  0.35216783  0.00517125     0.96700
O1104       O  0.97123320  0.36745761  0.97031917    -0.83900
O1105       O  0.96069023  0.32784877  0.88403226    -0.86500
C1106       C  0.94275450  0.29871932  0.85482489     1.01200
O1107       O  0.90478021  0.28188306  0.85475983    -0.79300
O1108       O  0.91427012  0.23794216  0.92866331    -0.79500
C1109       C  0.91303586  0.22271024  0.96997778     1.01100
O1110       O  0.83236266  0.24770545  0.01981954    -0.86800
O1111       O  0.88619218  0.33188795  0.03304015    -0.83900
C1112       C  0.88138798  0.35635018  0.00593031     0.96700
O1113       O  0.89284952  0.36273303  0.96210978    -0.83900
O1114       O  0.87982754  0.32840125  0.87099300    -0.86500
C1115       C  0.84324559  0.29881179  0.87449508     1.01200
O1116       O  0.83513054  0.27425219  0.90857326    -0.79300
O1117       O  0.83804738  0.21510328  0.95958846    -0.79500
C1118       C  0.81780720  0.21561742  0.99474450     1.01100
Cr1119     Cr  0.89526984  0.28518209  0.01688293     1.93700
Cr1120     Cr  0.92458253  0.34377676  0.92411408     1.93200
Cr1121     Cr  0.87432058  0.25500148  0.91474242     1.39100
O1122       O  0.89926990  0.29534299  0.95336956    -1.24500
O1123       O  0.74765159  0.16271715  0.02284990    -0.86800
O1124       O  0.66275293  0.11017338  0.03102905    -0.83800
C1125       C  0.64346564  0.11888057  0.00006169     0.96700
O1126       O  0.64253435  0.11036067  0.95579208    -0.83900
O1127       O  0.68359054  0.11760490  0.87223086    -0.86500
C1128       C  0.71653378  0.15196026  0.87216880     1.01200
O1129       O  0.74405986  0.15997937  0.90337827    -0.79300
O1130       O  0.78539527  0.14806929  0.97989549    -0.79500
C1131       C  0.78159309  0.17451305  0.00214098     1.01100
O1132       O  0.75743067  0.08730397  0.02744346    -0.86800
O1133       O  0.67352894  0.04062445  0.03061344    -0.83900
C1134       C  0.64093097  0.01745138  0.00841779     0.96700
O1135       O  0.62835575  0.02934838  0.97289876    -0.83900
O1136       O  0.67202357  0.03366376  0.88948513    -0.86500
C1137       C  0.70311339  0.04911459  0.86245547     1.01200
O1138       O  0.72664019  0.08631539  0.86612214    -0.79300
O1139       O  0.75451951  0.06751899  0.95229623    -0.79500
C1140       C  0.77094726  0.07381257  0.99364398     1.01100
Cr1141     Cr  0.70956147  0.09978294  0.02382602     1.93700
Cr1142     Cr  0.65952460  0.07410961  0.92529296     1.93200
Cr1143     Cr  0.75040217  0.11439726  0.92721024     1.39100
O1144       O  0.70548892  0.09610414  0.95934159    -1.24500
O1145       O  0.83539567  0.08061327  0.67022996    -0.86800
O1146       O  0.78170271  0.49582410  0.65773789    -0.83800
C1147       C  0.78549847  0.47129911  0.68567074     0.96700
O1148       O  0.77355314  0.46585514  0.72935521    -0.83900
O1149       O  0.78152597  0.49962916  0.81925351    -0.86500
C1150       C  0.81842198  0.03088366  0.82090697     1.01200
O1151       O  0.82989004  0.05986324  0.79121577    -0.79300
O1152       O  0.82764597  0.11419147  0.72840455    -0.79500
C1153       C  0.84864773  0.11320413  0.69438769     1.01100
O1154       O  0.76394279  0.09109686  0.67262244    -0.86800
O1155       O  0.71349843  0.51001631  0.66098865    -0.83900
C1156       C  0.68762121  0.47685774  0.68007385     0.96700
O1157       O  0.69618166  0.46139633  0.71538511    -0.83900
O1158       O  0.70338088  0.50184747  0.80202390    -0.86500
C1159       C  0.71994777  0.02925749  0.83129801     1.01200
O1160       O  0.75766518  0.04810315  0.83049050    -0.79300
O1161       O  0.74955555  0.09239625  0.75020118    -0.79500
C1162       C  0.75381590  0.10653100  0.70716417     1.01100
Cr1163     Cr  0.77271409  0.04254480  0.67031119     1.93700
Cr1164     Cr  0.74057403  0.48561410  0.76393989     1.93200
Cr1165     Cr  0.78935227  0.07561718  0.77261863     1.39100
O1166       O  0.76739012  0.03394894  0.73439242    -1.24500
O1167       O  0.74580265  0.16370588  0.67937205    -0.86800
O1168       O  0.71716727  0.21878798  0.66485013    -0.83800
C1169       C  0.68830805  0.20891746  0.69471393     0.96700
O1170       O  0.69482529  0.21484839  0.73969377    -0.83900
O1171       O  0.73000572  0.21098206  0.82626222    -0.86500
C1172       C  0.72948059  0.17702340  0.82862947     1.04800
O1173       O  0.74854181  0.16793312  0.79812491    -0.79300
O1174       O  0.79759996  0.17389875  0.72208254    -0.79500
C1175       C  0.76502155  0.14944035  0.70213236     1.01100
O1176       O  0.83128300  0.23476673  0.67023039    -0.86800
O1177       O  0.79844516  0.28500342  0.66678368    -0.83900
C1178       C  0.78789750  0.30818442  0.68721124     0.96700
O1179       O  0.76176831  0.29609695  0.72113678    -0.83900
O1180       O  0.80011953  0.29341141  0.80522888    -0.86500
C1181       C  0.81662766  0.27933739  0.83295015     1.01200
O1182       O  0.80726375  0.24304276  0.82892636    -0.79300
O1183       O  0.84884362  0.25722001  0.74409536    -0.79500
C1184       C  0.85894358  0.25267469  0.70210179     1.01100
Cr1185     Cr  0.77280820  0.22565617  0.67426904     1.93700
Cr1186     Cr  0.74803504  0.25227844  0.77052780     1.93200
Cr1187     Cr  0.79917374  0.21182210  0.77092663     1.39100
O1188       O  0.77236500  0.22986585  0.73828782    -1.24500
O1189       O  0.90939219  0.50023392  0.34372877    -0.86800
O1190       O  0.88188681  0.55519476  0.33097073    -0.83800
C1191       C  0.85325347  0.54887994  0.35998572     0.96700
O1192       O  0.85976886  0.55848516  0.40432023    -0.83900
O1193       O  0.88734247  0.54528814  0.49080301    -0.86500
C1194       C  0.88223548  0.50917575  0.49016081     1.01200
O1195       O  0.89942338  0.49918953  0.45809419    -0.79300
O1196       O  0.95843802  0.00765328  0.39012649    -0.79500
C1197       C  0.92784782  0.98481113  0.36597954     1.01100
O1198       O  0.99615147  0.57170226  0.34437245    -0.86800
O1199       O  0.96354249  0.62218581  0.33381379    -0.83900
C1200       C  0.95632574  0.64744107  0.35513402     0.96700
O1201       O  0.93323196  0.63766520  0.39209107    -0.83900
O1202       O  0.96605515  0.62571285  0.47670449    -0.86500
C1203       C  0.97678097  0.60679850  0.50546459     1.01200
O1204       O  0.95918334  0.56923157  0.50154891    -0.79300
O1205       O  0.50993739  0.58632574  0.42058152    -0.79500
C1206       C  0.52189382  0.58614699  0.37783933     1.01100
Cr1207     Cr  0.93746339  0.56251637  0.34242548     1.93700
Cr1208     Cr  0.91288874  0.59034951  0.43850150     1.93200
Cr1209     Cr  0.95496594  0.54134572  0.44082095     1.39100
O1210       O  0.93468013  0.56534898  0.40633643    -1.24500
O1211       O  0.57536854  0.57288416  0.68144181    -0.86800
O1212       O  0.62097817  0.65598722  0.69786655    -0.83800
C1213       C  0.64679380  0.68797069  0.67647864     0.96700
O1214       O  0.63810680  0.70143255  0.63874549    -0.83900
O1215       O  0.62875506  0.66220106  0.55295931    -0.86500
C1216       C  0.61193212  0.63270811  0.52430242     1.01200
O1217       O  0.57407976  0.61369749  0.52533820    -0.79300
O1218       O  0.59265215  0.57943136  0.60408451    -0.79500
C1219       C  0.58817205  0.56180860  0.64429431     1.01100
O1220       O  0.49919033  0.58146856  0.68507608    -0.86800
O1221       O  0.55022139  0.66517158  0.69990210    -0.83900
C1222       C  0.54647647  0.68964118  0.67170292     0.96700
O1223       O  0.55896205  0.69553431  0.62840789    -0.83900
O1224       O  0.54422430  0.65711270  0.54051371    -0.86500
C1225       C  0.50884934  0.62491590  0.54315296     1.01200
O1226       O  0.50271224  0.59795283  0.57402169    -0.79300
O1227       O  0.01392765  0.54621307  0.63747625    -0.79500
C1228       C  0.98770475  0.54774796  0.66330435     1.01100
Cr1229     Cr  0.56208254  0.61998479  0.68673354     1.93700
Cr1230     Cr  0.59107231  0.67637183  0.59224905     1.93200
Cr1231     Cr  0.54675482  0.58688745  0.58638449     1.39100
O1232       O  0.56718785  0.62894586  0.62299475    -1.24500
O1233       O  0.58313263  0.50903231  0.59743661    -0.86800
O1234       O  0.57015385  0.96066087  0.51851889    -0.83800
C1235       C  0.60784851  0.97766996  0.51543489     0.96700
O1236       O  0.62585657  0.96561936  0.54384149    -0.83900
O1237       O  0.63506476  0.93094184  0.62800578    -0.86500
C1238       C  0.64539774  0.95562521  0.66300556     1.01200
O1239       O  0.62059541  0.96389044  0.68382875    -0.79300
O1240       O  0.56868185  0.99438717  0.67605500    -0.79500
C1241       C  0.58270262  0.52072898  0.64025793     1.01100
O1242       O  0.00464359  0.95544464  0.62833374    -0.86800
O1243       O  0.49883993  0.90071990  0.55936361    -0.83900
C1244       C  0.50923115  0.88369490  0.52762933     0.96700
O1245       O  0.54516728  0.88823835  0.52783071    -0.83900
O1246       O  0.55603020  0.85933766  0.61531795    -0.86500
C1247       C  0.54789157  0.85312781  0.66016676     1.01200
O1248       O  0.55507039  0.88186885  0.68899106    -0.79300
O1249       O  0.49814453  0.90765983  0.67435505    -0.79500
C1250       C  0.98208093  0.92444657  0.65206626     1.01100
Cr1251     Cr  0.54100058  0.95552943  0.57845805     1.93700
Cr1252     Cr  0.58901386  0.91227352  0.58108693     1.93200
Cr1253     Cr  0.56073312  0.93658962  0.67673553     1.39100
O1254       O  0.56404634  0.93427218  0.61288902    -1.24500
O1255       O  0.57526168  0.57971579  0.33767133    -0.86800
O1256       O  0.65919176  0.62606549  0.32688550    -0.83800
C1257       C  0.69137004  0.65073731  0.34890198     0.96700
O1258       O  0.70421214  0.64042288  0.38584979    -0.83900
O1259       O  0.66221639  0.62975980  0.47011965    -0.86500
C1260       C  0.63140961  0.61298587  0.49723384     1.01200
O1261       O  0.61140829  0.57530427  0.49519505    -0.79300
O1262       O  0.58043647  0.59614421  0.41487975    -0.79500
C1263       C  0.56335209  0.59202471  0.37440531     1.01100
O1264       O  0.58487377  0.50419928  0.33418493    -0.86800
O1265       O  0.66869590  0.55595625  0.32203702    -0.83900
C1266       C  0.69090823  0.54924710  0.35067071     0.96700
O1267       O  0.69533936  0.55958006  0.39473687    -0.83900
O1268       O  0.65509237  0.54469425  0.48141638    -0.86500
C1269       C  0.62267277  0.50974712  0.47760150     1.01200
O1270       O  0.59592035  0.50469587  0.44685781    -0.79300
O1271       O  0.54935478  0.01637526  0.38391027    -0.79500
C1272       C  0.55187923  0.99135979  0.35711342     1.01100
Cr1273     Cr  0.62294442  0.56697939  0.33449731     1.93700
Cr1274     Cr  0.67655420  0.59229088  0.43084963     1.93200
Cr1275     Cr  0.58638142  0.54946862  0.43320849     1.39100
O1276       O  0.62984642  0.57002823  0.39851796    -1.24500
O1277       O  0.00283758  0.91901258  0.33495951    -0.86800
O1278       O  0.95133678  0.83420315  0.32142866    -0.83800
C1279       C  0.95615849  0.81097275  0.35057125     0.96700
O1280       O  0.94381544  0.80586202  0.39390917    -0.83900
O1281       O  0.94958163  0.84098344  0.48150232    -0.86500
C1282       C  0.98516571  0.87221540  0.48377560     1.01200
O1283       O  0.99553825  0.90142846  0.45455655    -0.79300
O1284       O  0.48865870  0.95233965  0.38659849    -0.79500
C1285       C  0.51358908  0.95124724  0.35808652     1.01100
O1286       O  0.92909421  0.92788556  0.33335894    -0.86800
O1287       O  0.88109063  0.84498520  0.32098852    -0.83900
C1288       C  0.85597394  0.81145157  0.34005604     0.96700
O1289       O  0.86508147  0.79666198  0.37574035    -0.83900
O1290       O  0.86795531  0.83642053  0.46202843    -0.86500
C1291       C  0.88380000  0.86526012  0.49208623     1.01200
O1292       O  0.92149911  0.88562815  0.49189651    -0.79300
O1293       O  0.91034198  0.92566542  0.40968366    -0.79500
C1294       C  0.91636591  0.94153861  0.36757036     1.01100
Cr1295     Cr  0.94025261  0.88009468  0.33232609     1.93700
Cr1296     Cr  0.90823340  0.82323525  0.42588020     1.93200
Cr1297     Cr  0.95286505  0.91351012  0.43377531     1.39100
O1298       O  0.93365396  0.87153977  0.39626212    -1.24500
O1299       O  0.91469845  0.99736488  0.68361591    -0.86800
O1300       O  0.82958725  0.94449458  0.69571999    -0.83800
C1301       C  0.80711145  0.95075720  0.66708644     0.96700
O1302       O  0.80355506  0.94104246  0.62281574    -0.83900
O1303       O  0.84111677  0.94991818  0.53528042    -0.86500
C1304       C  0.87283362  0.98518855  0.53418571     1.01200
O1305       O  0.90166971  0.99426102  0.56367411    -0.79300
O1306       O  0.94958007  0.48598475  0.63043776    -0.79500
C1307       C  0.94762719  0.50946245  0.66034515     1.01100
O1308       O  0.92408410  0.92379477  0.68376897    -0.86800
O1309       O  0.84101046  0.87521062  0.69204387    -0.83900
C1310       C  0.80798291  0.85086310  0.67138828     0.96700
O1311       O  0.79379201  0.86138549  0.63636657    -0.83900
O1312       O  0.83505292  0.86750548  0.55091230    -0.86500
C1313       C  0.86491128  0.88388428  0.52207856     1.01200
O1314       O  0.88604863  0.92142377  0.52408890    -0.79300
O1315       O  0.92346056  0.90698038  0.60714311    -0.79500
C1316       C  0.93852247  0.91195593  0.64960302     1.01100
Cr1317     Cr  0.87613798  0.93463882  0.68407756     1.93700
Cr1318     Cr  0.82158001  0.90659229  0.58882430     1.93200
Cr1319     Cr  0.91252896  0.95057130  0.58384118     1.39100
O1320       O  0.86928140  0.93045927  0.61983682    -1.24500
O1321       O  0.74187003  0.91281309  0.35116078    -0.86800
O1322       O  0.78458039  0.49658573  0.36435385    -0.83800
C1323       C  0.81118424  0.52745072  0.34146651     0.96700
O1324       O  0.80358754  0.53874582  0.30146782    -0.83900
O1325       O  0.79463575  0.49799746  0.21636408    -0.86500
C1326       C  0.77741750  0.96915433  0.18656680     1.01200
O1327       O  0.74028498  0.94669422  0.19090619    -0.79300
O1328       O  0.76099583  0.91755988  0.27446406    -0.79500
C1329       C  0.75676909  0.90186424  0.31636704     1.01100
O1330       O  0.66374578  0.91643358  0.34565132    -0.86800
O1331       O  0.71140753  0.50066019  0.36057212    -0.83900
C1332       C  0.71061996  0.52690961  0.33285143     0.96700
O1333       O  0.72496883  0.53348458  0.29029017    -0.83900
O1334       O  0.71110720  0.49232195  0.20334693    -0.86500
C1335       C  0.67649642  0.95807806  0.20274077     1.01200
O1336       O  0.66867630  0.93107580  0.23452608    -0.79300
O1337       O  0.68148501  0.88276225  0.30005471    -0.79500
C1338       C  0.65413958  0.88367123  0.32329990     1.01100
Cr1339     Cr  0.72617383  0.95770661  0.35110409     1.93700
Cr1340     Cr  0.75688550  0.51270436  0.25539603     1.93200
Cr1341     Cr  0.71414379  0.92236319  0.25214497     1.39100
O1342       O  0.73272874  0.96536826  0.28729771    -1.24500
O1343       O  0.58195439  0.83453916  0.99242830    -0.86800
O1344       O  0.55224470  0.88903017  0.99092548    -0.83800
C1345       C  0.52341385  0.87214794  0.02127632     0.96700
O1346       O  0.53083633  0.87232823  0.06574857    -0.83900
O1347       O  0.56940875  0.86699877  0.14767900    -0.86500
C1348       C  0.57601140  0.83706746  0.14954573     1.01200
O1349       O  0.59922952  0.83335042  0.11928480    -0.79300
O1350       O  0.63507644  0.84074737  0.03076333    -0.79500
C1351       C  0.60233813  0.81886613  0.00838000     1.01100
O1352       O  0.66610555  0.90297426  0.98239424    -0.86800
O1353       O  0.63364184  0.95426768  0.99492224    -0.83900
C1354       C  0.62127565  0.97426596  0.01910562     0.96700
O1355       O  0.59435724  0.95812168  0.05233325    -0.83900
O1356       O  0.63212956  0.95210635  0.13551673    -0.86500
C1357       C  0.65442660  0.94124090  0.15742334     1.01200
O1358       O  0.65631268  0.91094651  0.14346856    -0.79300
O1359       O  0.68642333  0.92888177  0.05236166    -0.79500
C1360       C  0.69518247  0.91985129  0.01256110     1.01100
Cr1361     Cr  0.60836863  0.89530811  0.99443572     1.93700
Cr1362     Cr  0.58325002  0.91114683  0.09700965     1.93200
Cr1363     Cr  0.64279686  0.87976908  0.08420444     1.39100
O1364       O  0.60991763  0.89438040  0.05926417    -1.24500
O1365       O  0.58322314  0.83439463  0.34542801    -0.86800
O1366       O  0.99779634  0.78205933  0.36374372    -0.83800
C1367       C  0.97822842  0.79055551  0.33398647     0.96700
O1368       O  0.97842941  0.78311621  0.29009687    -0.83900
O1369       O  0.02618897  0.79887314  0.21160569    -0.86500
C1370       C  0.56041334  0.80796191  0.19019851     1.01200
O1371       O  0.58198021  0.79248758  0.20319818    -0.79300
O1372       O  0.61784603  0.81878059  0.29213934    -0.79500
C1373       C  0.61534599  0.84437775  0.32056305     1.01100
O1374       O  0.59828294  0.77341138  0.37079848    -0.86800
O1375       O  0.00904086  0.71485589  0.36411479    -0.83900
C1376       C  0.97839046  0.69008167  0.33859622     0.96700
O1377       O  0.96784398  0.70009882  0.29859834    -0.83900
O1378       O  0.00466909  0.71766402  0.20220708    -0.86500
C1379       C  0.52813785  0.70286455  0.20060553     1.01200
O1380       O  0.55233739  0.70896509  0.23428735    -0.79300
O1381       O  0.58707539  0.73112019  0.31618309    -0.79500
C1382       C  0.61024128  0.75265104  0.34835280     1.01100
Cr1383     Cr  0.54582406  0.77428039  0.35516787     1.93700
Cr1384     Cr  0.99713079  0.75017771  0.25504963     1.93200
Cr1385     Cr  0.58294064  0.76342428  0.26327753     1.39100
O1386       O  0.54219586  0.76462367  0.29058783    -1.24500
O1387       O  0.66959431  0.74890718  0.01492485    -0.86800
O1388       O  0.62204064  0.66652715  0.98926931    -0.83800
C1389       C  0.62369833  0.64139152  0.01705546     0.96700
O1390       O  0.60959686  0.63590215  0.05889213    -0.83900
O1391       O  0.63084622  0.68348482  0.13788081    -0.86500
C1392       C  0.63994671  0.71525540  0.16209655     1.01200
O1393       O  0.62425418  0.73751470  0.15261799    -0.79300
O1394       O  0.65432555  0.78271280  0.06987617    -0.79500
C1395       C  0.68019580  0.77921979  0.04310326     1.01100
O1396       O  0.60887492  0.76270075  0.98569546    -0.86800
O1397       O  0.55113917  0.67421642  0.98678852    -0.83900
C1398       C  0.52399606  0.64495733  0.01255411     0.96700
O1399       O  0.53130339  0.63391964  0.05375914    -0.83900
O1400       O  0.55144533  0.66708869  0.15180225    -0.86500
C1401       C  0.53637158  0.68998284  0.15372603     1.01200
O1402       O  0.54091278  0.71152812  0.11779581    -0.79300
O1403       O  0.56745481  0.75446552  0.04174900    -0.79500
C1404       C  0.58835223  0.77533157  0.00738651     1.01100
Cr1405     Cr  0.61057814  0.71130378  0.00015434     1.93700
Cr1406     Cr  0.58132749  0.65852899  0.09619585     1.93200
Cr1407     Cr  0.59723361  0.74458772  0.09367173     1.39100
O1408       O  0.59830992  0.70482909  0.06359940    -1.24500
O1409       O  0.76023425  0.92243035  0.99707292    -0.86800
O1410       O  0.84301069  0.94714463  0.99083576    -0.83800
C1411       C  0.86358950  0.97765440  0.01822242     0.96700
O1412       O  0.86437616  0.97373331  0.06368770    -0.83900
O1413       O  0.82484333  0.95041874  0.15176548    -0.86500
C1414       C  0.79519602  0.95738053  0.14650422     1.01200
O1415       O  0.77078255  0.94058563  0.11201627    -0.79300
O1416       O  0.71718368  0.88113854  0.04936768    -0.79500
C1417       C  0.72571240  0.90705846  0.01710707     1.01100
O1418       O  0.74029240  0.83621010  0.00939523    -0.86800
O1419       O  0.82401813  0.86410472  0.00451754    -0.83900
C1420       C  0.85806140  0.87512930  0.02413442     0.96700
O1421       O  0.87204864  0.90172631  0.05726972    -0.83900
O1422       O  0.82623396  0.87083847  0.14044760    -0.86500
C1423       C  0.79421124  0.85825828  0.16531231     1.01200
O1424       O  0.77634068  0.87849418  0.16347053    -0.79300
O1425       O  0.73523314  0.82569496  0.08849151    -0.79500
C1426       C  0.72249803  0.81327212  0.04619576     1.01100
Cr1427     Cr  0.79258008  0.89283523  0.00472106     1.93700
Cr1428     Cr  0.84398602  0.92266312  0.10109162     1.93200
Cr1429     Cr  0.75268236  0.88281566  0.10182790     1.39100
O1430       O  0.79707056  0.89906837  0.06833890    -1.24500
O1431       O  0.67249483  0.75050730  0.35827574    -0.86800
O1432       O  0.72798859  0.72272986  0.35932604    -0.83800
C1433       C  0.71334770  0.69268807  0.33028941     0.96700
O1434       O  0.71498197  0.69782144  0.28491036    -0.83900
O1435       O  0.70305157  0.72942746  0.20030399    -0.86500
C1436       C  0.66859947  0.72842959  0.20279014     1.01200
O1437       O  0.66151878  0.74660629  0.23634087    -0.79300
O1438       O  0.67286938  0.79733179  0.31279282    -0.79500
C1439       C  0.65409065  0.76784059  0.34142563     1.01100
O1440       O  0.74072689  0.83654432  0.35190144    -0.86800
O1441       O  0.79264200  0.80576953  0.34677880    -0.83900
C1442       C  0.81337464  0.79269437  0.32584869     0.96700
O1443       O  0.79781321  0.76432081  0.29474783    -0.83900
O1444       O  0.78785242  0.80171462  0.21443766    -0.86500
C1445       C  0.77223478  0.81915646  0.19115589     1.01200
O1446       O  0.73447370  0.80436557  0.19390704    -0.79300
O1447       O  0.75444348  0.84902108  0.27522322    -0.79500
C1448       C  0.75393992  0.86182374  0.31659721     1.01100
Cr1449     Cr  0.73331460  0.77838944  0.35022629     1.93700
Cr1450     Cr  0.74963786  0.74949993  0.25071697     1.93200
Cr1451     Cr  0.70703928  0.79823825  0.25665575     1.39100
O1452       O  0.72924905  0.77389071  0.28636143    -1.24500
O1453       O  0.82938592  0.55393854  0.89862243    -0.86800
O1454       O  0.83271484  0.61307796  0.96184450    -0.83800
C1455       C  0.81432886  0.58635165  0.99300296     0.96700
O1456       O  0.83383117  0.57250362  0.01547601    -0.83900
O1457       O  0.89252753  0.54965640  0.02548665    -0.86500
C1458       C  0.88537878  0.51982564  0.99812697     1.01200
O1459       O  0.89402492  0.52470764  0.95329543    -0.79300
O1460       O  0.87854670  0.54731977  0.86506168    -0.79500
C1461       C  0.84131064  0.53884837  0.86609965     1.01100
O1462       O  0.89652835  0.61659651  0.84984875    -0.86800
O1463       O  0.90765340  0.66816810  0.92454321    -0.83900
C1464       C  0.90797726  0.68206770  0.96607823     0.96700
O1465       O  0.89999639  0.65953300  0.00386104    -0.83900
O1466       O  0.95650431  0.63329973  0.01484899    -0.86500
C1467       C  0.98167767  0.62504731  0.99499325     1.01200
O1468       O  0.97135462  0.59978382  0.96065393    -0.79300
O1469       O  0.95503651  0.62948618  0.87566366    -0.79500
C1470       C  0.93420833  0.63790535  0.84678630     1.01100
Cr1471     Cr  0.86808720  0.61170933  0.91112553     1.93700
Cr1472     Cr  0.89603729  0.60335920  0.01059179     1.93200
Cr1473     Cr  0.92328344  0.57662335  0.91597217     1.39100
O1474       O  0.89632205  0.59695854  0.94694525    -1.24500
O1475       O  0.91137801  0.74263179  0.66081877    -0.86800
O1476       O  0.49493083  0.78608763  0.65492764    -0.83800
C1477       C  0.52569593  0.81115529  0.67868902     0.96700
O1478       O  0.53601190  0.80176713  0.71851032    -0.83900
O1479       O  0.49126628  0.79235759  0.80064840    -0.86500
C1480       C  0.95865751  0.77693784  0.82646286     1.01200
O1481       O  0.93659564  0.73945812  0.82349796    -0.79300
O1482       O  0.91633377  0.76240882  0.73633301    -0.79500
C1483       C  0.90020320  0.75770399  0.69532618     1.01100
O1484       O  0.91920014  0.66549407  0.66595752    -0.86800
O1485       O  0.50267251  0.71548130  0.65771774    -0.83900
C1486       C  0.52466771  0.71026534  0.68823483     0.96700
O1487       O  0.52743516  0.72123447  0.73192259    -0.83900
O1488       O  0.48206775  0.70649035  0.81455221    -0.86500
C1489       C  0.94803404  0.67185578  0.81150316     1.01200
O1490       O  0.92046456  0.66730755  0.78185917    -0.79300
O1491       O  0.88113483  0.68145052  0.70576028    -0.79500
C1492       C  0.88503082  0.65432036  0.68520841     1.01100
Cr1493     Cr  0.95777223  0.72792566  0.66446847     1.93700
Cr1494     Cr  0.50649751  0.75405475  0.76412377     1.93200
Cr1495     Cr  0.91586073  0.71367550  0.76008323     1.39100
O1496       O  0.96125653  0.73163212  0.72913965    -1.24500
O1497       O  0.90214697  0.73567010  0.00503453    -0.86800
O1498       O  0.95538982  0.81824764  0.02274821    -0.83800
C1499       C  0.98099108  0.85175901  0.00390884     0.96700
O1500       O  0.97125721  0.86777386  0.97012553    -0.83900
O1501       O  0.95985590  0.82771290  0.88362873    -0.86500
C1502       C  0.94125479  0.79879792  0.85421970     1.01200
O1503       O  0.90327282  0.78319451  0.85334267    -0.79300
O1504       O  0.90516620  0.73359428  0.92450936    -0.79500
C1505       C  0.90743063  0.72049372  0.96610949     1.01100
O1506       O  0.83270573  0.74770983  0.02205357    -0.86800
O1507       O  0.88672778  0.83229121  0.03266263    -0.83900
C1508       C  0.88169188  0.85685860  0.00589056     0.96700
O1509       O  0.89342811  0.86395458  0.96213759    -0.83900
O1510       O  0.88179481  0.83231325  0.86926561    -0.86500
C1511       C  0.84441980  0.80475837  0.87254464     1.01200
O1512       O  0.83482619  0.78129784  0.90778946    -0.79300
O1513       O  0.83078934  0.71777737  0.95503138    -0.79500
C1514       C  0.81524733  0.71692494  0.99485340     1.01100
Cr1515     Cr  0.89505047  0.78519801  0.01554401     1.93700
Cr1516     Cr  0.92484687  0.84489290  0.92366776     1.93200
Cr1517     Cr  0.87004482  0.75687256  0.91225072     1.39100
O1518       O  0.89795624  0.79586097  0.95201055    -1.24500
O1519       O  0.74753083  0.66266030  0.02543134    -0.86800
O1520       O  0.66279434  0.60989097  0.03236367    -0.83800
C1521       C  0.64449446  0.61962140  0.00116416     0.96700
O1522       O  0.64505644  0.61260609  0.95663170    -0.83900
O1523       O  0.68776067  0.62062907  0.87369068    -0.86500
C1524       C  0.72138601  0.65447551  0.87388897     1.01200
O1525       O  0.74843869  0.66168331  0.90550408    -0.79300
O1526       O  0.78702052  0.64880517  0.98463181    -0.79500
C1527       C  0.78189831  0.67504345  0.00560377     1.01100
O1528       O  0.75784969  0.58744401  0.03044180    -0.86800
O1529       O  0.67399490  0.54080931  0.03119153    -0.83900
C1530       C  0.64162880  0.51820967  0.00830861     0.96700
O1531       O  0.62966962  0.53088196  0.97283164    -0.83900
O1532       O  0.67395900  0.53576489  0.88999061    -0.86500
C1533       C  0.70551851  0.55086994  0.86381881     1.01200
O1534       O  0.73006249  0.58778489  0.86869177    -0.79300
O1535       O  0.75373572  0.56688480  0.95584228    -0.79500
C1536       C  0.77069015  0.57331519  0.99666115     1.01100
Cr1537     Cr  0.70995006  0.59993173  0.02581772     1.93700
Cr1538     Cr  0.66192712  0.57633357  0.92602239     1.93200
Cr1539     Cr  0.75269195  0.61521435  0.93047816     1.39100
O1540       O  0.70716849  0.59742876  0.96117919    -1.24500
O1541       O  0.83583064  0.58068798  0.66951272    -0.86800
O1542       O  0.78173656  0.99574330  0.65758015    -0.83800
C1543       C  0.78611335  0.97169677  0.68564908     0.96700
O1544       O  0.77449705  0.96645857  0.72941984    -0.83900
O1545       O  0.78223575  0.00076435  0.81880265    -0.86500
C1546       C  0.81811002  0.52891234  0.82129290     1.01200
O1547       O  0.83040956  0.55767907  0.79124083    -0.79300
O1548       O  0.83056580  0.61385864  0.73004136    -0.79500
C1549       C  0.84997646  0.61306589  0.69419797     1.01100
O1550       O  0.76539981  0.59212955  0.67377822    -0.86800
O1551       O  0.71302407  0.00893768  0.66063794    -0.83900
C1552       C  0.68740856  0.97578896  0.68003824     0.96700
O1553       O  0.69638002  0.96044711  0.71516071    -0.83900
O1554       O  0.70258021  0.00039797  0.80153376    -0.86500
C1555       C  0.72141912  0.53057170  0.83188808     1.01200
O1556       O  0.75913065  0.54853973  0.83112009    -0.79300
O1557       O  0.75329535  0.59488267  0.75195018    -0.79500
C1558       C  0.75667579  0.60840308  0.70869773     1.01100
Cr1559     Cr  0.77324914  0.54305055  0.67071579     1.93700
Cr1560     Cr  0.74077276  0.98538147  0.76371867     1.93200
Cr1561     Cr  0.79139274  0.57564123  0.77352772     1.39100
O1562       O  0.76810449  0.53429460  0.73484378    -1.24500
O1563       O  0.74720269  0.66452875  0.68007944    -0.86800
O1564       O  0.71766789  0.71927169  0.66476250    -0.83800
C1565       C  0.68883416  0.70860057  0.69478789     0.96700
O1566       O  0.69557507  0.71362970  0.73982779    -0.83900
O1567       O  0.73304732  0.71249195  0.82643602    -0.86500
C1568       C  0.73521154  0.67998428  0.83048483     1.04800
O1569       O  0.75588659  0.67196900  0.80112191    -0.79300
O1570       O  0.80031301  0.67630203  0.72157571    -0.79500
C1571       C  0.76726483  0.65114181  0.70286768     1.01100
O1572       O  0.83172776  0.73525625  0.66711675    -0.86800
O1573       O  0.79860491  0.78550784  0.66551952    -0.83900
C1574       C  0.78763648  0.80834859  0.68603487     0.96700
O1575       O  0.76097672  0.79569498  0.71947805    -0.83900
O1576       O  0.80007897  0.79570071  0.80373808    -0.86500
C1577       C  0.81955112  0.78416728  0.83026555     1.01200
O1578       O  0.81391103  0.74910912  0.82577687    -0.79300
O1579       O  0.85071605  0.76191370  0.73851523    -0.79500
C1580       C  0.86012049  0.75493410  0.69747427     1.01100
Cr1581     Cr  0.77342137  0.72625617  0.67340605     1.93700
Cr1582     Cr  0.74879199  0.75273116  0.76979469     1.93200
Cr1583     Cr  0.80367511  0.71602502  0.76925413     1.39100
O1584       O  0.77400812  0.73122993  0.73754715    -1.24500
loop_ 
_geom_bond_atom_site_label_1 
_geom_bond_atom_site_label_2 
_geom_bond_distance 
_geom_bond_site_symmetry_2 
_ccdc_geom_bond_type 
O1          Cr19   2.053       .  S
O1          C405   1.262   1_545  A
O2          Cr19   2.004       .  S
O2            C3   1.268       .  A
C3            O4   1.266       .  A
C3          C135   1.474       .  S
O4          Cr20   1.996       .  S
O5          Cr20   2.068       .  S
O5            C6   1.283       .  A
C6            O7   1.261   1_545  A
C6          C512   1.459   1_545  S
O7          Cr21   1.963   1_565  S
O8         Cr417   1.952       .  S
O8            C9   1.242       .  A
C9          O397   1.263       .  A
C9          C106   1.475       .  S
O10         Cr19   2.068       .  S
O10         C810   1.284       .  A
O11         Cr19   1.983       .  S
O11          C12   1.263       .  A
C12          O13   1.270       .  A
C12         C188   1.475       .  S
O13         Cr20   2.016       .  S
O14         Cr20   2.070       .  S
O14          C15   1.263       .  A
C15          O16   1.242       .  A
C15         C829   1.479       .  S
O16         Cr21   1.946       .  S
O17        Cr813   1.953   1_455  S
O17          C18   1.263       .  A
C18         O802   1.283   1_455  A
C18          C75   1.471       .  S
Cr19         O22   1.773       .  S
Cr20         O22   1.770       .  S
Cr21        O404   1.952       .  S
Cr21        O809   1.950       .  S
Cr21         O22   1.735       .  S
O23         Cr41   2.087       .  S
O23          C31   1.289       .  A
O24         Cr41   1.975       .  S
O24          C25   1.262       .  A
C25          O26   1.272       .  A
C25         C377   1.470       .  S
O26         Cr42   2.010       .  S
O27         Cr42   2.060       .  S
O27          C28   1.256       .  A
C28          O29   1.242       .  A
C28          C72   1.484       .  S
O29         Cr43   1.970       .  S
O30         Cr43   1.954       .  S
O30          C31   1.261       .  A
C31          C53   1.471       .  S
O32         Cr41   2.083   1_655  S
O32         C832   1.261       .  A
O33         Cr41   2.008       .  S
O33          C34   1.271       .  A
C34          O35   1.262       .  A
C34         C298   1.463       .  S
O35         Cr42   1.967       .  S
O36         Cr42   2.104       .  S
O36          C37   1.289       .  A
C37          O38   1.260       .  A
C37         C807   1.478   1_455  S
O38         Cr43   1.938       .  S
O39        Cr835   1.946       .  S
O39          C40   1.244       .  A
C40         O824   1.262       .  A
C40         C119   1.494       .  S
Cr41         O44   1.783       .  S
Cr42         O44   1.775       .  S
Cr43        O831   1.941       .  S
Cr43         O44   1.716       .  S
O45        Cr459   1.960   1_545  S
O45          C53   1.265       .  A
O46         Cr63   1.941       .  S
O46          C47   1.241       .  A
C47          O48   1.263       .  A
C47         C477   1.476       .  S
O48         Cr64   2.068       .  S
O49         Cr64   2.000       .  S
O49          C50   1.266       .  A
C50          O51   1.262       .  A
C50         C364   1.457       .  S
O51         Cr65   1.974       .  S
O52         Cr65   2.055       .  S
O52         C449   1.278       .  A
C53         O448   1.280   1_545  A
O54        Cr855   1.943       .  S
O54          C62   1.240       .  A
O55         Cr63   1.964   1_655  S
O55          C56   1.260   1_655  A
C56          O57   1.281       .  A
C56         C886   1.457   1_455  S
O57         Cr64   2.063       .  S
O58         Cr64   1.996       .  S
O58          C59   1.268       .  A
C59          O60   1.265       .  A
C59         C289   1.472       .  S
O60         Cr65   2.003       .  S
O61         Cr65   2.055   1_655  S
O61         C854   1.265       .  A
C62         O853   1.264       .  A
C62         C128   1.470       .  S
Cr63        O441   1.960       .  S
Cr63        O846   1.944       .  S
Cr63         O66   1.734       .  S
Cr64         O66   1.769       .  S
Cr65         O66   1.772       .  S
O67         Cr85   2.084       .  S
O67          C75   1.286       .  A
O68         Cr85   1.971       .  S
O68          C69   1.264       .  A
C69          O70   1.272       .  A
C69         C245   1.472       .  S
O70         Cr86   2.016       .  S
O71         Cr86   2.060       .  S
O71          C72   1.257       .  A
C72          O73   1.243       .  A
O73         Cr87   1.968       .  S
O74         Cr87   1.957       .  S
O74          C75   1.262       .  A
O76         Cr85   2.083       .  S
O76         C480   1.261   1_545  A
O77         Cr85   1.998       .  S
O77          C78   1.267       .  A
C78          O79   1.264       .  A
C78         C144   1.462       .  S
O79         Cr86   1.976       .  S
O80         Cr86   2.099       .  S
O80          C81   1.288       .  A
C81          O82   1.261       .  A
C81         C443   1.478   1_545  S
O82         Cr87   1.940       .  S
O83        Cr483   1.939       .  S
O83          C84   1.243       .  A
C84         O472   1.261       .  A
C84          C97   1.491       .  S
Cr85         O88   1.782       .  S
Cr86         O88   1.776       .  S
Cr87        O479   1.945       .  S
Cr87         O88   1.716       .  S
O89        Cr107   2.076       .  S
O89         C889   1.266       .  A
O90        Cr107   2.004       .  S
O90          C91   1.270       .  A
C91          O92   1.262       .  A
C91         C179   1.465       .  S
O92        Cr108   1.975       .  S
O93        Cr108   2.051       .  S
O93          C94   1.278       .  A
C94          O95   1.264       .  A
C94         C848   1.456       .  S
O95        Cr109   1.968       .  S
O96        Cr901   1.920       .  S
O96          C97   1.242   1_655  A
C97         O881   1.266       .  A
O98        Cr107   2.055       .  S
O98         C106   1.279       .  A
O99        Cr107   1.976       .  S
O99         C100   1.261       .  A
C100        O101   1.262       .  A
C100        C254   1.452       .  S
O101       Cr108   1.991       .  S
O102       Cr108   2.078       .  S
O102        C103   1.264       .  A
C103        O104   1.238       .  A
C103        C125   1.480       .  S
O104       Cr109   1.959       .  S
O105       Cr109   1.994       .  S
O105        C106   1.275       .  A
Cr107       O110   1.787       .  S
Cr108       O110   1.786       .  S
Cr109       O888   1.916       .  S
Cr109       O110   1.729       .  S
O111       Cr129   2.084       .  S
O111        C515   1.268       .  A
O112       Cr129   1.995       .  S
O112        C113   1.266       .  A
C113        O114   1.264       .  A
C113        C355   1.462       .  S
O114       Cr130   1.980       .  S
O115       Cr130   2.055       .  S
O115        C116   1.279       .  A
C116        O117   1.264       .  A
C116        C402   1.459       .  S
O117       Cr131   1.971       .  S
O118       Cr527   1.918       .  S
O118        C119   1.243   1_565  A
C119        O507   1.269   1_545  A
O120       Cr129   2.044       .  S
O120        C128   1.276       .  A
O121       Cr129   1.978       .  S
O121        C122   1.263       .  A
C122        O123   1.263       .  A
C122        C386   1.456       .  S
O123       Cr130   1.992       .  S
O124       Cr130   2.072       .  S
O124        C125   1.261       .  A
C125        O126   1.241       .  A
O126       Cr131   1.965       .  S
O127       Cr131   1.996       .  S
O127        C128   1.276       .  A
Cr129       O132   1.787       .  S
Cr130       O132   1.786       .  S
Cr131       O514   1.920       .  S
Cr131       O132   1.730       .  S
O133       Cr151   2.061       .  S
O133        C141   1.281       .  A
O134       Cr547   1.997       .  S
O134        C135   1.268   1_565  A
C135        O136   1.267       .  A
O136       Cr152   1.997       .  S
O137       Cr152   2.069   1_565  S
O137        C534   1.259       .  A
C138        O139   1.233       .  A
C138        O533   1.259       .  A
C138        C226   1.473       .  S
O139       Cr153   1.941       .  S
O140       Cr153   1.967       .  S
O140        C141   1.273       .  A
C141        C260   1.467       .  S
O142       Cr151   2.092       .  S
O142        C150   1.268       .  A
O143       Cr547   1.986   1_545  S
O143        C144   1.266       .  A
C144        O145   1.264       .  A
O145       Cr152   1.986       .  S
O146       Cr152   2.081   1_565  S
O146        C543   1.287       .  A
C147        O148   1.265       .  A
C147        O542   1.287       .  A
C147        C169   1.463       .  S
O148       Cr153   1.964       .  S
O149       Cr153   1.919       .  S
O149        C150   1.230       .  A
C150        C185   1.486       .  S
Cr151       O530   1.995       .  S
Cr151       O539   1.985       .  S
Cr151       O154   1.779       .  S
Cr152       O550   1.774   1_545  S
Cr153       O154   1.720       .  S
O154       Cr548   1.774       .  S
O155       Cr173   2.008       .  S
O155        C163   1.263   1_556  A
O156       Cr173   2.015       .  S
O156        C157   1.265   1_556  A
C157        O158   1.258       .  A
C157       C1103   1.473   1_455  S
O158       Cr174   1.986       .  S
O159       Cr174   2.039       .  S
O159        C160   1.278       .  A
C160        O161   1.267       .  A
C160        C182   1.473       .  S
O161       Cr175   1.962       .  S
O162       Cr175   2.005       .  S
O162        C163   1.259       .  A
C163        C216   1.463       .  S
O164       Cr173   2.079       .  S
O164        C172   1.272   1_556  A
O165       Cr173   1.946       .  S
O165        C166   1.260   1_556  A
C166        O167   1.276       .  A
C166        C738   1.453       .  S
O167       Cr174   2.029       .  S
O168       Cr174   2.029       .  S
O168        C169   1.260       .  A
C169        O170   1.246       .  A
O170       Cr175   1.933       .  S
O171       Cr175   1.974       .  S
O171        C172   1.243       .  A
C172        C229   1.462       .  S
Cr173       O176   1.790   1_556  S
Cr174       O176   1.772       .  S
Cr175       O176   1.734       .  S
O177       Cr195   2.015       .  S
O177        C185   1.276       .  A
O178       Cr987   1.982       .  S
O178        C179   1.250       .  A
C179        O180   1.245       .  A
O180       Cr196   1.967       .  S
O181       Cr196   2.007       .  S
O181        C974   1.271       .  A
C182        O183   1.269       .  A
C182        O973   1.270       .  A
O183       Cr197   2.000       .  S
O184       Cr197   2.011       .  S
O184        C185   1.287       .  A
O186       Cr195   2.045       .  S
O186        C194   1.248       .  A
O187       Cr987   1.991       .  S
O187        C188   1.283       .  A
C188        O189   1.293       .  A
O189       Cr196   2.042       .  S
O190       Cr196   2.019       .  S
O190        C983   1.255       .  A
C191        O192   1.243       .  A
C191        O982   1.255       .  A
C191        C213   1.468       .  S
O192       Cr197   1.969       .  S
O193       Cr197   1.959       .  S
O193        C194   1.231       .  A
C194        C251   1.472       .  S
Cr195       O970   1.982   1_455  S
Cr195       O979   1.990       .  S
Cr195       O198   1.809       .  S
Cr196       O990   1.773       .  S
Cr197       O198   1.733       .  S
O198       Cr988   1.773   1_455  S
O199       Cr217   2.006       .  S
O199        C207   1.278       .  A
O200       Cr217   1.973   1_556  S
O200        C201   1.248   1_556  A
C201        O202   1.243       .  A
C201        C333   1.461       .  S
O202       Cr218   1.959       .  S
O203       Cr218   1.992       .  S
O203        C204   1.267       .  A
C204        O205   1.275       .  A
C204        C248   1.466       .  S
O205       Cr219   2.008       .  S
O206       Cr219   2.019       .  S
O206        C207   1.283       .  A
C207        C238   1.478       .  S
O208       Cr217   2.022   1_556  S
O208        C216   1.247   1_556  A
O209       Cr217   2.009   1_556  S
O209        C210   1.287   1_556  A
C210        O211   1.287       .  A
C210       C1071   1.471   1_454  S
O211       Cr218   2.018       .  S
O212       Cr218   2.023       .  S
O212        C213   1.253       .  A
C213        O214   1.239       .  A
O214       Cr219   1.971       .  S
O215       Cr219   1.969       .  S
O215        C216   1.234       .  A
Cr217       O220   1.794       .  S
Cr218       O220   1.782       .  S
Cr219       O220   1.738       .  S
O221       Cr239   2.038   1_556  S
O221        C229   1.261   1_556  A
O222       Cr239   2.030   1_556  S
O222        C223   1.275   1_556  A
C223        O224   1.265       .  A
C223        C666   1.481   1_554  S
O224       Cr240   1.980       .  S
O225       Cr240   2.084       .  S
O225        C226   1.281       .  A
C226        O227   1.258       .  A
O227       Cr241   1.963       .  S
O228       Cr241   1.956       .  S
O228        C229   1.243       .  A
O230       Cr239   2.079       .  S
O230        C238   1.286       .  A
O231       Cr239   1.969       .  S
O231        C232   1.262       .  A
C232        O233   1.267       .  A
C232        C320   1.463       .  S
O233       Cr240   2.011       .  S
O234       Cr240   2.044       .  S
O234        C235   1.259       .  A
C235        O236   1.249       .  A
C235        C257   1.473       .  S
O236       Cr241   1.967       .  S
O237       Cr241   1.961       .  S
O237        C238   1.263       .  A
Cr239       O242   1.769       .  S
Cr240       O242   1.787       .  S
Cr241       O242   1.736       .  S
O243       Cr261   2.009       .  S
O243        C251   1.259       .  A
O244       Cr261   2.031       .  S
O244        C245   1.274       .  A
C245        O246   1.264       .  A
O246       Cr262   1.972       .  S
O247       Cr262   2.072       .  S
O247        C248   1.285       .  A
C248        O249   1.259       .  A
O249       Cr263   1.940       .  S
O250       Cr263   2.004       .  S
O250        C251   1.260       .  A
O252       Cr261   2.079       .  S
O252        C260   1.280       .  A
O253       Cr261   1.948       .  S
O253        C254   1.255       .  A
C254        O255   1.270       .  A
O255       Cr262   2.022       .  S
O256       Cr262   2.041       .  S
O256        C257   1.259       .  A
C257        O258   1.250       .  A
O258       Cr263   1.970       .  S
O259       Cr263   1.940       .  S
O259        C260   1.245       .  A
Cr261       O264   1.770       .  S
Cr262       O264   1.766       .  S
Cr263       O264   1.730       .  S
O265       Cr283   1.968       .  S
O265        C273   1.261       .  A
O266       Cr283   1.953       .  S
O266        C267   1.244       .  A
C267        O268   1.260   1_556  A
C267        C348   1.472       .  S
O268       Cr284   2.046       .  S
O269       Cr284   2.014       .  S
O269        C270   1.272   1_554  A
C270        O271   1.269       .  A
C270        C619   1.484   1_546  S
O271       Cr285   1.999       .  S
O272       Cr285   2.053       .  S
O272        C273   1.279       .  A
C273        C358   1.454       .  S
O274       Cr283   1.959       .  S
O274        C282   1.243       .  A
O275       Cr283   1.945       .  S
O275        C276   1.259       .  A
C276        O277   1.283   1_556  A
C276        C317   1.466       .  S
O277       Cr284   2.067       .  S
O278       Cr284   1.986       .  S
O278        C279   1.263   1_554  A
C279        O280   1.265       .  A
C279       C1002   1.470   1_556  S
O280       Cr285   2.004       .  S
O281       Cr285   2.073       .  S
O281        C282   1.267       .  A
C282        C301   1.484       .  S
Cr283       O286   1.736       .  S
Cr284       O286   1.773   1_554  S
Cr285       O286   1.771       .  S
O287       Cr305   2.089       .  S
O287        C295   1.285       .  A
O288      Cr1097   1.969       .  S
O288        C289   1.262   1_655  A
C289        O290   1.274       .  A
O290       Cr306   2.021       .  S
O291       Cr306   2.071   1_655  S
O291       C1084   1.259       .  A
C292        O293   1.243       .  A
C292       O1083   1.260       .  A
C292        C314   1.496       .  S
O293       Cr307   1.970       .  S
O294       Cr307   1.951       .  S
O294        C295   1.257       .  A
C295        C392   1.467       .  S
O296       Cr305   2.077       .  S
O296        C304   1.258       .  A
O297      Cr1097   1.989   1_455  S
O297        C298   1.267       .  A
C298        O299   1.263       .  A
O299       Cr306   1.985       .  S
O300       Cr306   2.093   1_655  S
O300       C1093   1.290       .  A
C301        O302   1.268       .  A
C301       O1092   1.290       .  A
O302       Cr307   1.943       .  S
O303       Cr307   1.966       .  S
O303        C304   1.245       .  A
C304        C361   1.486       .  S
Cr305      O1080   1.970       .  S
Cr305      O1089   1.986       .  S
Cr305       O308   1.789       .  S
Cr306      O1100   1.771   1_455  S
Cr307       O308   1.721       .  S
O308      Cr1098   1.771       .  S
O309       Cr327   2.048       .  S
O309        C317   1.281   1_554  A
O310       Cr327   1.994       .  S
O310        C311   1.264       .  A
C311        O312   1.263   1_554  A
C311        C949   1.476       .  S
O312       Cr328   1.994       .  S
O313       Cr328   2.060       .  S
O313        C314   1.262       .  A
C314        O315   1.251       .  A
O315       Cr329   1.987       .  S
O316       Cr329   1.952       .  S
O316        C317   1.269       .  A
O318       Cr327   2.072       .  S
O318        C326   1.265   1_554  A
O319       Cr327   2.014       .  S
O319        C320   1.273       .  A
C320        O321   1.266   1_554  A
O321       Cr328   1.976       .  S
O322       Cr328   2.091       .  S
O322        C323   1.278       .  A
C323        O324   1.244       .  A
C323        C389   1.460       .  S
O324       Cr329   1.963       .  S
O325       Cr329   1.897       .  S
O325        C326   1.238       .  A
C326        C339   1.488   1_556  S
Cr327       O330   1.788   1_554  S
Cr328       O330   1.792       .  S
Cr329       O330   1.718       .  S
O331       Cr349   2.082       .  S
O331        C339   1.264       .  A
O332       Cr349   2.003       .  S
O332        C333   1.269       .  A
C333        O334   1.260   1_554  A
O334       Cr350   1.970       .  S
O335       Cr350   2.052       .  S
O335        C336   1.281       .  A
C336        O337   1.268       .  A
C336        C380   1.461       .  S
O337       Cr351   1.971       .  S
O338       Cr351   1.972       .  S
O338        C339   1.245   1_556  A
O340       Cr349   2.089       .  S
O340        C348   1.284   1_554  A
O341       Cr349   1.969       .  S
O341        C342   1.263       .  A
C342        O343   1.268   1_554  A
C342        C562   1.455   1_545  S
O343       Cr350   2.006       .  S
O344       Cr350   2.064       .  S
O344        C345   1.261       .  A
C345        O346   1.244       .  A
C345        C367   1.478       .  S
O346       Cr351   1.960       .  S
O347       Cr351   1.979       .  S
O347        C348   1.261       .  A
Cr349       O352   1.787   1_554  S
Cr350       O352   1.777       .  S
Cr351       O352   1.724       .  S
O353       Cr371   2.072       .  S
O353        C361   1.268       .  A
O354       Cr767   1.994       .  S
O354        C355   1.267       .  A
C355        O356   1.265       .  A
O356       Cr372   1.982       .  S
O357       Cr372   2.050       .  S
O357        C754   1.275       .  A
C358        O359   1.260       .  A
C358        O753   1.275       .  A
O359       Cr373   1.968       .  S
O360       Cr373   1.896       .  S
O360        C361   1.240       .  A
O362       Cr371   2.026       .  S
O362        C370   1.272       .  A
O363       Cr767   1.983       .  S
O363        C364   1.261       .  A
C364        O365   1.259       .  A
O365       Cr372   1.984       .  S
O366       Cr372   2.073       .  S
O366        C763   1.263       .  A
C367        O368   1.238       .  A
C367        O762   1.263       .  A
O368       Cr373   1.952       .  S
O369       Cr373   2.000       .  S
O369        C370   1.279       .  A
C370        C383   1.471       .  S
Cr371       O750   1.997   1_545  S
Cr371       O759   1.984       .  S
Cr371       O374   1.791       .  S
Cr372       O770   1.794       .  S
Cr373       O374   1.733       .  S
O374       Cr768   1.793   1_545  S
O375       Cr393   2.046       .  S
O375        C383   1.268       .  A
O376       Cr393   2.004       .  S
O376        C377   1.264       .  A
C377        O378   1.265       .  A
O378       Cr394   1.993       .  S
O379       Cr394   2.053       .  S
O379        C380   1.279       .  A
C380        O381   1.262       .  A
O381       Cr395   1.956       .  S
O382       Cr395   1.955       .  S
O382        C383   1.247       .  A
O384       Cr393   2.064       .  S
O384        C392   1.274       .  A
O385       Cr393   1.969       .  S
O385        C386   1.263       .  A
C386        O387   1.269       .  A
O387       Cr394   2.009       .  S
O388       Cr394   2.042       .  S
O388        C389   1.260       .  A
C389        O390   1.243       .  A
O390       Cr395   1.919       .  S
O391       Cr395   1.956       .  S
O391        C392   1.254       .  A
Cr393       O396   1.778       .  S
Cr394       O396   1.769       .  S
Cr395       O396   1.731       .  S
O397       Cr415   2.055       .  S
O398       Cr415   2.002       .  S
O398        C399   1.268       .  A
C399        O400   1.266       .  A
C399        C531   1.473       .  S
O400       Cr416   1.996       .  S
O401       Cr416   2.068       .  S
O401        C402   1.283       .  A
C402        O403   1.261       .  A
O403       Cr417   1.962       .  S
O404        C405   1.241   1_545  A
C405        C502   1.474       .  S
O406       Cr415   2.066       .  S
O406       C1206   1.282       .  A
O407       Cr415   1.981       .  S
O407        C408   1.263       .  A
C408        O409   1.270       .  A
C408        C584   1.472       .  S
O409       Cr416   2.015       .  S
O410       Cr416   2.068       .  S
O410        C411   1.263       .  A
C411        O412   1.243       .  A
C411       C1225   1.478       .  S
O412       Cr417   1.944       .  S
O413      Cr1209   1.951   1_455  S
O413        C414   1.263       .  A
C414       O1198   1.283   1_455  A
C414        C471   1.472       .  S
Cr415       O418   1.773       .  S
Cr416       O418   1.771       .  S
Cr417      O1205   1.952       .  S
Cr417       O418   1.734       .  S
O419       Cr437   2.088       .  S
O419        C427   1.289       .  A
O420       Cr437   1.974       .  S
O420        C421   1.262       .  A
C421        O422   1.271       .  A
C421        C773   1.469       .  S
O422       Cr438   2.008       .  S
O423       Cr438   2.062       .  S
O423        C424   1.256       .  A
C424        O425   1.242       .  A
C424        C468   1.485       .  S
O425       Cr439   1.969       .  S
O426       Cr439   1.953       .  S
O426        C427   1.260       .  A
C427        C449   1.470       .  S
O428       Cr437   2.083   1_655  S
O428       C1228   1.261       .  A
O429       Cr437   2.010       .  S
O429        C430   1.271       .  A
C430        O431   1.263       .  A
C430        C694   1.466       .  S
O431       Cr438   1.970       .  S
O432       Cr438   2.103       .  S
O432        C433   1.290       .  A
C433        O434   1.261       .  A
C433       C1203   1.478   1_455  S
O434       Cr439   1.936       .  S
O435      Cr1231   1.942       .  S
O435        C436   1.244       .  A
C436       O1220   1.261       .  A
C436        C515   1.494       .  S
Cr437       O440   1.783       .  S
Cr438       O440   1.773       .  S
Cr439      O1227   1.947       .  S
Cr439       O440   1.717       .  S
O441        C449   1.265       .  A
O442       Cr459   1.943       .  S
O442        C443   1.241       .  A
C443        O444   1.264       .  A
O444       Cr460   2.071       .  S
O445       Cr460   1.999       .  S
O445        C446   1.265       .  A
C446        O447   1.262       .  A
C446        C760   1.457       .  S
O447       Cr461   1.974       .  S
O448       Cr461   2.058       .  S
O450      Cr1251   1.943       .  S
O450        C458   1.241       .  A
O451       Cr459   1.965   1_655  S
O451        C452   1.261   1_655  A
C452        O453   1.281       .  A
C452       C1282   1.457   1_455  S
O453       Cr460   2.061       .  S
O454       Cr460   1.997       .  S
O454        C455   1.268       .  A
C455        O456   1.266       .  A
C455        C685   1.475       .  S
O456       Cr461   2.007       .  S
O457       Cr461   2.055   1_655  S
O457       C1250   1.264       .  A
C458       O1249   1.265       .  A
C458        C524   1.472       .  S
Cr459      O1242   1.943       .  S
Cr459       O462   1.734       .  S
Cr460       O462   1.769       .  S
Cr461       O462   1.772       .  S
O463       Cr481   2.082       .  S
O463        C471   1.286       .  A
O464       Cr481   1.973       .  S
O464        C465   1.264       .  A
C465        O466   1.271       .  A
C465        C641   1.472       .  S
O466       Cr482   2.015       .  S
O467       Cr482   2.061       .  S
O467        C468   1.257       .  A
C468        O469   1.243       .  A
O469       Cr483   1.969       .  S
O470       Cr483   1.957       .  S
O470        C471   1.263       .  A
O472       Cr481   2.083       .  S
O473       Cr481   1.998       .  S
O473        C474   1.267       .  A
C474        O475   1.264       .  A
C474        C540   1.461       .  S
O475       Cr482   1.975       .  S
O476       Cr482   2.100       .  S
O476        C477   1.287       .  A
C477        O478   1.259       .  A
O478       Cr483   1.940       .  S
O479        C480   1.243   1_545  A
C480        C493   1.491       .  S
Cr481       O484   1.781       .  S
Cr482       O484   1.777       .  S
Cr483       O484   1.715       .  S
O485       Cr503   2.078       .  S
O485       C1285   1.266       .  A
O486       Cr503   2.001       .  S
O486        C487   1.270       .  A
C487        O488   1.262       .  A
C487        C575   1.464       .  S
O488       Cr504   1.975       .  S
O489       Cr504   2.052       .  S
O489        C490   1.279       .  A
C490        O491   1.264       .  A
C490       C1244   1.455       .  S
O491       Cr505   1.967       .  S
O492      Cr1297   1.914       .  S
O492        C493   1.242   1_655  A
C493       O1277   1.267       .  A
O494       Cr503   2.056       .  S
O494        C502   1.280       .  A
O495       Cr503   1.978       .  S
O495        C496   1.262       .  A
C496        O497   1.263       .  A
C496        C650   1.455       .  S
O497       Cr504   1.993       .  S
O498       Cr504   2.076       .  S
O498        C499   1.263       .  A
C499        O500   1.239       .  A
C499        C521   1.480       .  S
O500       Cr505   1.960       .  S
O501       Cr505   1.992       .  S
O501        C502   1.274       .  A
Cr503       O506   1.786       .  S
Cr504       O506   1.785       .  S
Cr505      O1284   1.919       .  S
Cr505       O506   1.728       .  S
O507       Cr525   2.083       .  S
O508       Cr525   1.997       .  S
O508        C509   1.266       .  A
C509        O510   1.264       .  A
C509        C751   1.465       .  S
O510       Cr526   1.983       .  S
O511       Cr526   2.054       .  S
O511        C512   1.279       .  A
C512        O513   1.263       .  A
O513       Cr527   1.970       .  S
O514        C515   1.242       .  A
O516       Cr525   2.042       .  S
O516        C524   1.275       .  A
O517       Cr525   1.980       .  S
O517        C518   1.263       .  A
C518        O519   1.262       .  A
C518        C782   1.458       .  S
O519       Cr526   1.993       .  S
O520       Cr526   2.073       .  S
O520        C521   1.262       .  A
C521        O522   1.240       .  A
O522       Cr527   1.964       .  S
O523       Cr527   1.997       .  S
O523        C524   1.277       .  A
Cr525       O528   1.787       .  S
Cr526       O528   1.787       .  S
Cr527       O528   1.731       .  S
O529       Cr547   2.061       .  S
O529        C537   1.282       .  A
O530        C531   1.268       .  A
C531        O532   1.268       .  A
O532       Cr548   1.997       .  S
O533       Cr548   2.068       .  S
C534        O535   1.233       .  A
C534        C622   1.474       .  S
O535       Cr549   1.942       .  S
O536       Cr549   1.967       .  S
O536        C537   1.273       .  A
C537        C656   1.468       .  S
O538       Cr547   2.093       .  S
O538        C546   1.269       .  A
O539        C540   1.265       .  A
C540        O541   1.264       .  A
O541       Cr548   1.985       .  S
O542       Cr548   2.080       .  S
C543        O544   1.265       .  A
C543        C565   1.464       .  S
O544       Cr549   1.964       .  S
O545       Cr549   1.917       .  S
O545        C546   1.229       .  A
C546        C581   1.486       .  S
Cr547       O550   1.779       .  S
Cr549       O550   1.720       .  S
O551       Cr569   2.006       .  S
O551        C559   1.262   1_556  A
O552       Cr569   2.018       .  S
O552        C553   1.266   1_556  A
C553        O554   1.259       .  A
C553       C1499   1.476   1_455  S
O554       Cr570   1.988       .  S
O555       Cr570   2.041       .  S
O555        C556   1.278       .  A
C556        O557   1.267       .  A
C556        C578   1.475       .  S
O557       Cr571   1.964       .  S
O558       Cr571   2.005       .  S
O558        C559   1.259       .  A
C559        C612   1.461       .  S
O560       Cr569   2.077       .  S
O560        C568   1.272   1_556  A
O561       Cr569   1.948       .  S
O561        C562   1.260   1_556  A
C562        O563   1.276       .  A
O563       Cr570   2.031       .  S
O564       Cr570   2.030       .  S
O564        C565   1.261       .  A
C565        O566   1.247       .  A
O566       Cr571   1.934       .  S
O567       Cr571   1.974       .  S
O567        C568   1.244       .  A
C568        C625   1.461       .  S
Cr569       O572   1.790   1_556  S
Cr570       O572   1.771       .  S
Cr571       O572   1.736       .  S
O573       Cr591   2.014       .  S
O573        C581   1.275       .  A
O574      Cr1383   1.985       .  S
O574        C575   1.250       .  A
C575        O576   1.244       .  A
O576       Cr592   1.966       .  S
O577       Cr592   2.004       .  S
O577       C1370   1.270       .  A
C578       O1369   1.271       .  A
C578        O579   1.270       .  A
O579       Cr593   2.000       .  S
O580       Cr593   2.011       .  S
O580        C581   1.287       .  A
O582       Cr591   2.045       .  S
O582        C590   1.249       .  A
O583      Cr1383   1.987       .  S
O583        C584   1.282       .  A
C584        O585   1.292       .  A
O585       Cr592   2.042       .  S
O586       Cr592   2.017       .  S
O586       C1379   1.256       .  A
C587       O1378   1.255       .  A
C587        O588   1.242       .  A
C587        C609   1.469       .  S
O588       Cr593   1.969       .  S
O589       Cr593   1.959       .  S
O589        C590   1.231       .  A
C590        C647   1.473       .  S
Cr591      O1366   1.981   1_455  S
Cr591      O1375   1.990       .  S
Cr591       O594   1.810       .  S
Cr592      O1386   1.771       .  S
Cr593       O594   1.733       .  S
O594      Cr1384   1.773   1_455  S
O595       Cr613   2.007   1_554  S
O595        C603   1.278       .  A
O596       Cr613   1.974       .  S
O596        C597   1.248   1_556  A
C597        O598   1.243       .  A
C597        C729   1.461       .  S
O598       Cr614   1.958       .  S
O599       Cr614   1.993       .  S
O599        C600   1.267       .  A
C600        O601   1.276       .  A
C600        C644   1.466       .  S
O601       Cr615   2.008       .  S
O602       Cr615   2.019       .  S
O602        C603   1.282       .  A
C603        C634   1.478       .  S
O604       Cr613   2.021       .  S
O604        C612   1.247   1_556  A
O605       Cr613   2.009       .  S
O605        C606   1.287   1_556  A
C606        O607   1.288       .  A
C606       C1467   1.472   1_454  S
O607       Cr614   2.020       .  S
O608       Cr614   2.023       .  S
O608        C609   1.253       .  A
C609        O610   1.239       .  A
O610       Cr615   1.971       .  S
O611       Cr615   1.969       .  S
O611        C612   1.233       .  A
Cr613       O616   1.795   1_556  S
Cr614       O616   1.782       .  S
Cr615       O616   1.737       .  S
O617       Cr635   2.037   1_556  S
O617        C625   1.260   1_556  A
O618       Cr635   2.030   1_556  S
O618        C619   1.275   1_556  A
C619        O620   1.266       .  A
O620       Cr636   1.984       .  S
O621       Cr636   2.086       .  S
O621        C622   1.281       .  A
C622        O623   1.259       .  A
O623       Cr637   1.961       .  S
O624       Cr637   1.956       .  S
O624        C625   1.243       .  A
O626       Cr635   2.080       .  S
O626        C634   1.287       .  A
O627       Cr635   1.967       .  S
O627        C628   1.261       .  A
C628        O629   1.269       .  A
C628        C716   1.463       .  S
O629       Cr636   2.014       .  S
O630       Cr636   2.046       .  S
O630        C631   1.259       .  A
C631        O632   1.248       .  A
C631        C653   1.474       .  S
O632       Cr637   1.966       .  S
O633       Cr637   1.962       .  S
O633        C634   1.262       .  A
Cr635       O638   1.769       .  S
Cr636       O638   1.786       .  S
Cr637       O638   1.736       .  S
O639       Cr657   2.010       .  S
O639        C647   1.259       .  A
O640       Cr657   2.032       .  S
O640        C641   1.274       .  A
C641        O642   1.264       .  A
O642       Cr658   1.972       .  S
O643       Cr658   2.073       .  S
O643        C644   1.285       .  A
C644        O645   1.258       .  A
O645       Cr659   1.941       .  S
O646       Cr659   2.004       .  S
O646        C647   1.260       .  A
O648       Cr657   2.080       .  S
O648        C656   1.280       .  A
O649       Cr657   1.952       .  S
O649        C650   1.256       .  A
C650        O651   1.270       .  A
O651       Cr658   2.023       .  S
O652       Cr658   2.041       .  S
O652        C653   1.259       .  A
C653        O654   1.250       .  A
O654       Cr659   1.971       .  S
O655       Cr659   1.940       .  S
O655        C656   1.245       .  A
Cr657       O660   1.770       .  S
Cr658       O660   1.767       .  S
Cr659       O660   1.731       .  S
O661       Cr679   1.969       .  S
O661        C669   1.261       .  A
O662       Cr679   1.954       .  S
O662        C663   1.243       .  A
C663        O664   1.260   1_556  A
C663        C744   1.474       .  S
O664       Cr680   2.047       .  S
O665       Cr680   2.009       .  S
O665        C666   1.272   1_554  A
C666        O667   1.268       .  A
O667       Cr681   1.997       .  S
O668       Cr681   2.052       .  S
O668        C669   1.279       .  A
C669        C754   1.454       .  S
O670       Cr679   1.959       .  S
O670        C678   1.243       .  A
O671       Cr679   1.947       .  S
O671        C672   1.260       .  A
C672        O673   1.284   1_556  A
C672        C713   1.467       .  S
O673       Cr680   2.066       .  S
O674       Cr680   1.985       .  S
O674        C675   1.263   1_554  A
C675        O676   1.265       .  A
C675       C1398   1.470   1_556  S
O676       Cr681   2.005       .  S
O677       Cr681   2.073       .  S
O677        C678   1.267       .  A
C678        C697   1.484       .  S
Cr679       O682   1.737       .  S
Cr680       O682   1.773   1_554  S
Cr681       O682   1.772       .  S
O683       Cr701   2.089       .  S
O683        C691   1.285       .  A
O684      Cr1493   1.971       .  S
O684        C685   1.262   1_655  A
C685        O686   1.275       .  A
O686       Cr702   2.024       .  S
O687       Cr702   2.072   1_655  S
O687       C1480   1.261       .  A
C688       O1479   1.259       .  A
C688        O689   1.243       .  A
C688        C710   1.495       .  S
O689       Cr703   1.969       .  S
O690       Cr703   1.951       .  S
O690        C691   1.257       .  A
C691        C788   1.467       .  S
O692       Cr701   2.076       .  S
O692        C700   1.259       .  A
O693      Cr1493   1.986   1_455  S
O693        C694   1.266       .  A
C694        O695   1.264       .  A
O695       Cr702   1.991       .  S
O696       Cr702   2.090   1_655  S
O696       C1489   1.290       .  A
C697       O1488   1.290       .  A
C697        O698   1.268       .  A
O698       Cr703   1.942       .  S
O699       Cr703   1.969       .  S
O699        C700   1.246       .  A
C700        C757   1.486       .  S
Cr701      O1476   1.969       .  S
Cr701      O1485   1.987       .  S
Cr701       O704   1.789       .  S
Cr702      O1496   1.770   1_455  S
Cr703       O704   1.721       .  S
O704      Cr1494   1.771       .  S
O705       Cr723   2.053       .  S
O705        C713   1.282   1_554  A
O706       Cr723   1.991       .  S
O706        C707   1.265       .  A
C707        O708   1.264   1_554  A
C707       C1345   1.474       .  S
O708       Cr724   1.994       .  S
O709       Cr724   2.062       .  S
O709        C710   1.261       .  A
C710        O711   1.249       .  A
O711       Cr725   1.984       .  S
O712       Cr725   1.953       .  S
O712        C713   1.269       .  A
O714       Cr723   2.073       .  S
O714        C722   1.265   1_554  A
O715       Cr723   2.014       .  S
O715        C716   1.273       .  A
C716        O717   1.266   1_554  A
O717       Cr724   1.976       .  S
O718       Cr724   2.091       .  S
O718        C719   1.279       .  A
C719        O720   1.246       .  A
C719        C785   1.461       .  S
O720       Cr725   1.960       .  S
O721       Cr725   1.899       .  S
O721        C722   1.239       .  A
C722        C735   1.488   1_556  S
Cr723       O726   1.786   1_554  S
Cr724       O726   1.789       .  S
Cr725       O726   1.717       .  S
O727       Cr745   2.082       .  S
O727        C735   1.264       .  A
O728       Cr745   2.004       .  S
O728        C729   1.269       .  A
C729        O730   1.260   1_554  A
O730       Cr746   1.969       .  S
O731       Cr746   2.051       .  S
O731        C732   1.281       .  A
C732        O733   1.268       .  A
C732        C776   1.460       .  S
O733       Cr747   1.971       .  S
O734       Cr747   1.967       .  S
O734        C735   1.244   1_556  A
O736       Cr745   2.090       .  S
O736        C744   1.284   1_554  A
O737       Cr745   1.968       .  S
O737        C738   1.262       .  A
C738        O739   1.267   1_554  A
O739       Cr746   2.003       .  S
O740       Cr746   2.063       .  S
O740        C741   1.261       .  A
C741        O742   1.244       .  A
C741        C763   1.477       .  S
O742       Cr747   1.959       .  S
O743       Cr747   1.980       .  S
O743        C744   1.262       .  A
Cr745       O748   1.786   1_554  S
Cr746       O748   1.777       .  S
Cr747       O748   1.724       .  S
O749       Cr767   2.071       .  S
O749        C757   1.268       .  A
O750        C751   1.268       .  A
C751        O752   1.266       .  A
O752       Cr768   1.984       .  S
O753       Cr768   2.049   1_545  S
C754        O755   1.259       .  A
O755       Cr769   1.967       .  S
O756       Cr769   1.897       .  S
O756        C757   1.240       .  A
O758       Cr767   2.021       .  S
O758        C766   1.271       .  A
O759        C760   1.262   1_545  A
C760        O761   1.259       .  A
O761       Cr768   1.983       .  S
O762       Cr768   2.076   1_545  S
C763        O764   1.238       .  A
O764       Cr769   1.954       .  S
O765       Cr769   2.000       .  S
O765        C766   1.279       .  A
C766        C779   1.469       .  S
Cr767       O770   1.791       .  S
Cr769       O770   1.733       .  S
O771       Cr789   2.048       .  S
O771        C779   1.268       .  A
O772       Cr789   2.003       .  S
O772        C773   1.264       .  A
C773        O774   1.264       .  A
O774       Cr790   1.991       .  S
O775       Cr790   2.054       .  S
O775        C776   1.279       .  A
C776        O777   1.262       .  A
O777       Cr791   1.956       .  S
O778       Cr791   1.951       .  S
O778        C779   1.246       .  A
O780       Cr789   2.063       .  S
O780        C788   1.274       .  A
O781       Cr789   1.971       .  S
O781        C782   1.264       .  A
C782        O783   1.269       .  A
O783       Cr790   2.009       .  S
O784       Cr790   2.043       .  S
O784        C785   1.260       .  A
C785        O786   1.243       .  A
O786       Cr791   1.919       .  S
O787       Cr791   1.955       .  S
O787        C788   1.255       .  A
Cr789       O792   1.777       .  S
Cr790       O792   1.769       .  S
Cr791       O792   1.731       .  S
O793       Cr811   2.054       .  S
O793       C1197   1.263   1_545  A
O794       Cr811   2.003       .  S
O794        C795   1.268       .  A
C795        O796   1.266       .  A
C795        C927   1.474       .  S
O796       Cr812   1.997       .  S
O797       Cr812   2.070       .  S
O797        C798   1.284       .  A
C798        O799   1.261       .  A
C798       C1304   1.460   1_545  S
O799       Cr813   1.961       .  S
O800      Cr1209   1.952       .  S
O800        C801   1.241       .  A
C801       O1189   1.262       .  A
C801        C898   1.474       .  S
O802       Cr811   2.067       .  S
O803       Cr811   1.981       .  S
O803        C804   1.263       .  A
C804        O805   1.270       .  A
C804        C980   1.472       .  S
O805       Cr812   2.015       .  S
O806       Cr812   2.070       .  S
O806        C807   1.263       .  A
C807        O808   1.241       .  A
O808       Cr813   1.943       .  S
O809        C810   1.263       .  A
C810        C867   1.471       .  S
Cr811       O814   1.773       .  S
Cr812       O814   1.771       .  S
Cr813      O1196   1.952       .  S
Cr813       O814   1.735       .  S
O815       Cr833   2.088       .  S
O815        C823   1.289       .  A
O816       Cr833   1.974       .  S
O816        C817   1.263       .  A
C817        O818   1.271       .  A
C817       C1169   1.468       .  S
O818       Cr834   2.008       .  S
O819       Cr834   2.060       .  S
O819        C820   1.256       .  A
C820        O821   1.242       .  A
C820        C864   1.484       .  S
O821       Cr835   1.970       .  S
O822       Cr835   1.953       .  S
O822        C823   1.260       .  A
C823        C845   1.471       .  S
O824       Cr833   2.085       .  S
O825       Cr833   2.008       .  S
O825        C826   1.271       .  A
C826        O827   1.262       .  A
C826       C1090   1.463       .  S
O827       Cr834   1.968       .  S
O828       Cr834   2.103       .  S
O828        C829   1.289       .  A
C829        O830   1.261       .  A
O830       Cr835   1.937       .  S
O831        C832   1.243   1_455  A
C832        C911   1.493       .  S
Cr833       O836   1.783       .  S
Cr834       O836   1.774       .  S
Cr835       O836   1.717       .  S
O837      Cr1251   1.959   1_545  S
O837        C845   1.265       .  A
O838       Cr855   1.942       .  S
O838        C839   1.240       .  A
C839        O840   1.263       .  A
C839       C1269   1.476       .  S
O840       Cr856   2.069       .  S
O841       Cr856   2.000       .  S
O841        C842   1.266       .  A
C842        O843   1.262       .  A
C842       C1156   1.458       .  S
O843       Cr857   1.975       .  S
O844       Cr857   2.057       .  S
O844       C1241   1.280       .  A
C845       O1240   1.279   1_545  A
O846        C854   1.241   1_455  A
O847       Cr855   1.964       .  S
O847        C848   1.260       .  A
C848        O849   1.281       .  A
O849       Cr856   2.062       .  S
O850       Cr856   1.995       .  S
O850        C851   1.268       .  A
C851        O852   1.266       .  A
C851       C1081   1.474       .  S
O852       Cr857   2.006       .  S
O853       Cr857   2.054       .  S
C854        C920   1.471       .  S
Cr855      O1233   1.959       .  S
Cr855       O858   1.735       .  S
Cr856       O858   1.769       .  S
Cr857       O858   1.771       .  S
O859       Cr877   2.081       .  S
O859        C867   1.286       .  A
O860       Cr877   1.973       .  S
O860        C861   1.264       .  A
C861        O862   1.271       .  A
C861       C1037   1.473       .  S
O862       Cr878   2.015       .  S
O863       Cr878   2.061       .  S
O863        C864   1.257       .  A
C864        O865   1.243       .  A
O865       Cr879   1.968       .  S
O866       Cr879   1.957       .  S
O866        C867   1.263       .  A
O868       Cr877   2.083       .  S
O868       C1272   1.261   1_545  A
O869       Cr877   1.996       .  S
O869        C870   1.267       .  A
C870        O871   1.264       .  A
C870        C936   1.460       .  S
O871       Cr878   1.975       .  S
O872       Cr878   2.100       .  S
O872        C873   1.287       .  A
C873        O874   1.259       .  A
C873       C1235   1.476   1_545  S
O874       Cr879   1.939       .  S
O875      Cr1275   1.945       .  S
O875        C876   1.243       .  A
C876       O1264   1.261       .  A
C876        C889   1.490       .  S
Cr877       O880   1.781       .  S
Cr878       O880   1.777       .  S
Cr879      O1271   1.939       .  S
Cr879       O880   1.715       .  S
O881       Cr899   2.078   1_455  S
O882       Cr899   2.001       .  S
O882        C883   1.269       .  A
C883        O884   1.262       .  A
C883        C971   1.463       .  S
O884       Cr900   1.973       .  S
O885       Cr900   2.054       .  S
O885        C886   1.279       .  A
C886        O887   1.264       .  A
O887       Cr901   1.968       .  S
O888        C889   1.242       .  A
O890       Cr899   2.056       .  S
O890        C898   1.280       .  A
O891       Cr899   1.978       .  S
O891        C892   1.262       .  A
C892        O893   1.263       .  A
C892       C1046   1.455       .  S
O893       Cr900   1.994       .  S
O894       Cr900   2.076       .  S
O894        C895   1.263       .  A
C895        O896   1.239       .  A
C895        C917   1.481       .  S
O896       Cr901   1.961       .  S
O897       Cr901   1.991       .  S
O897        C898   1.274       .  A
Cr899       O902   1.787       .  S
Cr900       O902   1.785       .  S
Cr901       O902   1.728       .  S
O903       Cr921   2.080       .  S
O903       C1307   1.268       .  A
O904       Cr921   1.999       .  S
O904        C905   1.267       .  A
C905        O906   1.265       .  A
C905       C1147   1.467       .  S
O906       Cr922   1.985       .  S
O907       Cr922   2.054       .  S
O907        C908   1.279       .  A
C908        O909   1.264       .  A
C908       C1194   1.459       .  S
O909       Cr923   1.970       .  S
O910      Cr1319   1.920       .  S
O910        C911   1.242   1_565  A
C911       O1299   1.268   1_545  A
O912       Cr921   2.044       .  S
O912        C920   1.276       .  A
O913       Cr921   1.977       .  S
O913        C914   1.262       .  A
C914        O915   1.262       .  A
C914       C1178   1.455       .  S
O915       Cr922   1.991       .  S
O916       Cr922   2.075       .  S
O916        C917   1.262       .  A
C917        O918   1.240       .  A
O918       Cr923   1.963       .  S
O919       Cr923   1.997       .  S
O919        C920   1.277       .  A
Cr921       O924   1.788       .  S
Cr922       O924   1.787       .  S
Cr923      O1306   1.917       .  S
Cr923       O924   1.731       .  S
O925       Cr943   2.060       .  S
O925        C933   1.282       .  A
O926      Cr1339   1.994       .  S
O926        C927   1.267   1_565  A
C927        O928   1.268       .  A
O928       Cr944   2.000       .  S
O929       Cr944   2.066   1_565  S
O929       C1326   1.259       .  A
C930       O1325   1.259       .  A
C930        O931   1.233       .  A
C930       C1018   1.474       .  S
O931       Cr945   1.941       .  S
O932       Cr945   1.968       .  S
O932        C933   1.274       .  A
C933       C1052   1.468       .  S
O934       Cr943   2.091       .  S
O934        C942   1.268       .  A
O935      Cr1339   1.985   1_545  S
O935        C936   1.265       .  A
C936        O937   1.264       .  A
O937       Cr944   1.983       .  S
O938       Cr944   2.080   1_565  S
O938       C1335   1.287       .  A
C939       O1334   1.287       .  A
C939        O940   1.265       .  A
C939        C961   1.465       .  S
O940       Cr945   1.965       .  S
O941       Cr945   1.916       .  S
O941        C942   1.229       .  A
C942        C977   1.484       .  S
Cr943      O1322   1.996       .  S
Cr943      O1331   1.987       .  S
Cr943       O946   1.779       .  S
Cr944      O1342   1.774   1_545  S
Cr945       O946   1.721       .  S
O946      Cr1340   1.774       .  S
O947       Cr965   2.004       .  S
O947        C955   1.262   1_556  A
O948       Cr965   2.018       .  S
O948        C949   1.266   1_556  A
C949        O950   1.259       .  A
O950       Cr966   1.988       .  S
O951       Cr966   2.040       .  S
O951        C952   1.277       .  A
C952        O953   1.267       .  A
C952        C974   1.475       .  S
O953       Cr967   1.964       .  S
O954       Cr967   2.006       .  S
O954        C955   1.259       .  A
C955       C1008   1.462       .  S
O956       Cr965   2.077       .  S
O956        C964   1.272   1_556  A
O957       Cr965   1.947       .  S
O957        C958   1.260   1_556  A
C958        O959   1.276       .  A
C958       C1530   1.454       .  S
O959       Cr966   2.030       .  S
O960       Cr966   2.031       .  S
O960        C961   1.261       .  A
C961        O962   1.247       .  A
O962       Cr967   1.934       .  S
O963       Cr967   1.974       .  S
O963        C964   1.243       .  A
C964       C1021   1.461       .  S
Cr965       O968   1.790   1_556  S
Cr966       O968   1.772       .  S
Cr967       O968   1.735       .  S
O969       Cr987   2.013       .  S
O969        C977   1.275       .  A
O970        C971   1.250       .  A
C971        O972   1.244       .  A
O972       Cr988   1.964       .  S
O973       Cr988   2.003   1_455  S
C974        O975   1.270       .  A
O975       Cr989   2.000       .  S
O976       Cr989   2.010       .  S
O976        C977   1.287       .  A
O978       Cr987   2.046       .  S
O978        C986   1.249       .  A
O979        C980   1.283   1_455  A
C980        O981   1.292       .  A
O981       Cr988   2.040       .  S
O982       Cr988   2.017   1_455  S
C983        O984   1.242       .  A
C983       C1005   1.469       .  S
O984       Cr989   1.970       .  S
O985       Cr989   1.958       .  S
O985        C986   1.231       .  A
C986       C1043   1.473       .  S
Cr987       O990   1.810       .  S
Cr989       O990   1.733       .  S
O991      Cr1009   2.008   1_554  S
O991        C999   1.278       .  A
O992      Cr1009   1.975       .  S
O992        C993   1.249   1_556  A
C993        O994   1.243       .  A
C993       C1125   1.460       .  S
O994      Cr1010   1.957       .  S
O995      Cr1010   1.990       .  S
O995        C996   1.266       .  A
C996        O997   1.276       .  A
C996       C1040   1.465       .  S
O997      Cr1011   2.009       .  S
O998      Cr1011   2.018       .  S
O998        C999   1.282       .  A
C999       C1030   1.478       .  S
O1000     Cr1009   2.023       .  S
O1000      C1008   1.247   1_556  A
O1001     Cr1009   2.009       .  S
O1001      C1002   1.287   1_556  A
C1002      O1003   1.287       .  A
O1003     Cr1010   2.017       .  S
O1004     Cr1010   2.023       .  S
O1004      C1005   1.253       .  A
C1005      O1006   1.239       .  A
O1006     Cr1011   1.971       .  S
O1007     Cr1011   1.968       .  S
O1007      C1008   1.233       .  A
Cr1009     O1012   1.795   1_556  S
Cr1010     O1012   1.781       .  S
Cr1011     O1012   1.737       .  S
O1013     Cr1031   2.037   1_556  S
O1013      C1021   1.260   1_556  A
O1014     Cr1031   2.030   1_556  S
O1014      C1015   1.275   1_556  A
C1015      O1016   1.265       .  A
C1015      C1458   1.483   1_554  S
O1016     Cr1032   1.983       .  S
O1017     Cr1032   2.086       .  S
O1017      C1018   1.281       .  A
C1018      O1019   1.259       .  A
O1019     Cr1033   1.961       .  S
O1020     Cr1033   1.957       .  S
O1020      C1021   1.243       .  A
O1022     Cr1031   2.079       .  S
O1022      C1030   1.286       .  A
O1023     Cr1031   1.966       .  S
O1023      C1024   1.261       .  A
C1024      O1025   1.269       .  A
C1024      C1112   1.463       .  S
O1025     Cr1032   2.014       .  S
O1026     Cr1032   2.044       .  S
O1026      C1027   1.259       .  A
C1027      O1028   1.248       .  A
C1027      C1049   1.473       .  S
O1028     Cr1033   1.966       .  S
O1029     Cr1033   1.962       .  S
O1029      C1030   1.263       .  A
Cr1031     O1034   1.768       .  S
Cr1032     O1034   1.787       .  S
Cr1033     O1034   1.735       .  S
O1035     Cr1053   2.009       .  S
O1035      C1043   1.259       .  A
O1036     Cr1053   2.032       .  S
O1036      C1037   1.274       .  A
C1037      O1038   1.264       .  A
O1038     Cr1054   1.972       .  S
O1039     Cr1054   2.072       .  S
O1039      C1040   1.285       .  A
C1040      O1041   1.258       .  A
O1041     Cr1055   1.939       .  S
O1042     Cr1055   2.005       .  S
O1042      C1043   1.260       .  A
O1044     Cr1053   2.080       .  S
O1044      C1052   1.280       .  A
O1045     Cr1053   1.950       .  S
O1045      C1046   1.256       .  A
C1046      O1047   1.271       .  A
O1047     Cr1054   2.025       .  S
O1048     Cr1054   2.040       .  S
O1048      C1049   1.259       .  A
C1049      O1050   1.250       .  A
O1050     Cr1055   1.970       .  S
O1051     Cr1055   1.940       .  S
O1051      C1052   1.245       .  A
Cr1053     O1056   1.769       .  S
Cr1054     O1056   1.767       .  S
Cr1055     O1056   1.731       .  S
O1057     Cr1075   1.968       .  S
O1057      C1065   1.261       .  A
O1058     Cr1075   1.954       .  S
O1058      C1059   1.243       .  A
C1059      O1060   1.261   1_556  A
C1059      C1140   1.475       .  S
O1060     Cr1076   2.050       .  S
O1061     Cr1076   2.008       .  S
O1061      C1062   1.271   1_554  A
C1062      O1063   1.268       .  A
C1062      C1411   1.481   1_546  S
O1063     Cr1077   1.999       .  S
O1064     Cr1077   2.057       .  S
O1064      C1065   1.280       .  A
C1065      C1150   1.456       .  S
O1066     Cr1075   1.955       .  S
O1066      C1074   1.242       .  A
O1067     Cr1075   1.949       .  S
O1067      C1068   1.261       .  A
C1068      O1069   1.283   1_556  A
C1068      C1109   1.468       .  S
O1069     Cr1076   2.064       .  S
O1070     Cr1076   1.986       .  S
O1070      C1071   1.263   1_554  A
C1071      O1072   1.266       .  A
O1072     Cr1077   2.006       .  S
O1073     Cr1077   2.072       .  S
O1073      C1074   1.266       .  A
C1074      C1093   1.482       .  S
Cr1075     O1078   1.737       .  S
Cr1076     O1078   1.772   1_554  S
Cr1077     O1078   1.772       .  S
O1079     Cr1097   2.090       .  S
O1079      C1087   1.286       .  A
O1080      C1081   1.262       .  A
C1081      O1082   1.274       .  A
O1082     Cr1098   2.023       .  S
O1083     Cr1098   2.071       .  S
C1084      O1085   1.243       .  A
C1084      C1106   1.495       .  S
O1085     Cr1099   1.969       .  S
O1086     Cr1099   1.952       .  S
O1086      C1087   1.257       .  A
C1087      C1184   1.468       .  S
O1088     Cr1097   2.076       .  S
O1088      C1096   1.259       .  A
O1089      C1090   1.266       .  A
C1090      O1091   1.264       .  A
O1091     Cr1098   1.988       .  S
O1092     Cr1098   2.092       .  S
C1093      O1094   1.266       .  A
O1094     Cr1099   1.939       .  S
O1095     Cr1099   1.966       .  S
O1095      C1096   1.246       .  A
C1096      C1153   1.488       .  S
Cr1097     O1100   1.787       .  S
Cr1099     O1100   1.720       .  S
O1101     Cr1119   2.062       .  S
O1101      C1109   1.284   1_554  A
O1102     Cr1119   1.990       .  S
O1102      C1103   1.265       .  A
C1103      O1104   1.265   1_554  A
O1104     Cr1120   1.995       .  S
O1105     Cr1120   2.064       .  S
O1105      C1106   1.261       .  A
C1106      O1107   1.248       .  A
O1107     Cr1121   1.982       .  S
O1108     Cr1121   1.952       .  S
O1108      C1109   1.267       .  A
O1110     Cr1119   2.080       .  S
O1110      C1118   1.265   1_554  A
O1111     Cr1119   2.013       .  S
O1111      C1112   1.272       .  A
C1112      O1113   1.265   1_554  A
O1113     Cr1120   1.975       .  S
O1114     Cr1120   2.093       .  S
O1114      C1115   1.280       .  A
C1115      O1116   1.248       .  A
C1115      C1181   1.463       .  S
O1116     Cr1121   1.956       .  S
O1117     Cr1121   1.905       .  S
O1117      C1118   1.240       .  A
C1118      C1131   1.492   1_556  S
Cr1119     O1122   1.784   1_554  S
Cr1120     O1122   1.786       .  S
Cr1121     O1122   1.715       .  S
O1123     Cr1141   2.087       .  S
O1123      C1131   1.264       .  A
O1124     Cr1141   2.003       .  S
O1124      C1125   1.269       .  A
C1125      O1126   1.260   1_554  A
O1126     Cr1142   1.970       .  S
O1127     Cr1142   2.047       .  S
O1127      C1128   1.280       .  A
C1128      O1129   1.267       .  A
C1128      C1172   1.456       .  S
O1129     Cr1143   1.970       .  S
O1130     Cr1143   1.956       .  S
O1130      C1131   1.243   1_556  A
O1132     Cr1141   2.086       .  S
O1132      C1140   1.284   1_554  A
O1133     Cr1141   1.971       .  S
O1133      C1134   1.263       .  A
C1134      O1135   1.266   1_554  A
C1134      C1354   1.452   1_545  S
O1135     Cr1142   1.999       .  S
O1136     Cr1142   2.066       .  S
O1136      C1137   1.262       .  A
C1137      O1138   1.243       .  A
C1137      C1159   1.478       .  S
O1138     Cr1143   1.960       .  S
O1139     Cr1143   1.982       .  S
O1139      C1140   1.265       .  A
Cr1141     O1144   1.786   1_554  S
Cr1142     O1144   1.779       .  S
Cr1143     O1144   1.724       .  S
O1145     Cr1163   2.074       .  S
O1145      C1153   1.269       .  A
O1146     Cr1559   2.000       .  S
O1146      C1147   1.269       .  A
C1147      O1148   1.266       .  A
O1148     Cr1164   1.986       .  S
O1149     Cr1164   2.050       .  S
O1149      C1546   1.275       .  A
C1150      O1545   1.276       .  A
C1150      O1151   1.261       .  A
O1151     Cr1165   1.968       .  S
O1152     Cr1165   1.900       .  S
O1152      C1153   1.240       .  A
O1154     Cr1163   2.026       .  S
O1154      C1162   1.272       .  A
O1155     Cr1559   1.984       .  S
O1155      C1156   1.261       .  A
C1156      O1157   1.259       .  A
O1157     Cr1164   1.984       .  S
O1158     Cr1164   2.076       .  S
O1158      C1555   1.264       .  A
C1159      O1554   1.262       .  A
C1159      O1160   1.238       .  A
O1160     Cr1165   1.955       .  S
O1161     Cr1165   1.999       .  S
O1161      C1162   1.279       .  A
C1162      C1175   1.469       .  S
Cr1163     O1542   1.996   1_545  S
Cr1163     O1551   1.983       .  S
Cr1163     O1166   1.790       .  S
Cr1164     O1562   1.795       .  S
Cr1165     O1166   1.733       .  S
O1166     Cr1560   1.792   1_545  S
O1167     Cr1185   2.048       .  S
O1167      C1175   1.266       .  A
O1168     Cr1185   2.003       .  S
O1168      C1169   1.265       .  A
C1169      O1170   1.264       .  A
O1170     Cr1186   1.990       .  S
O1171     Cr1186   2.052       .  S
O1171      C1172   1.279       .  A
C1172      O1173   1.261       .  A
O1173     Cr1187   1.956       .  S
O1174     Cr1187   1.950       .  S
O1174      C1175   1.245       .  A
O1176     Cr1185   2.063       .  S
O1176      C1184   1.276       .  A
O1177     Cr1185   1.969       .  S
O1177      C1178   1.263       .  A
C1178      O1179   1.268       .  A
O1179     Cr1186   2.005       .  S
O1180     Cr1186   2.046       .  S
O1180      C1181   1.261       .  A
C1181      O1182   1.244       .  A
O1182     Cr1187   1.924       .  S
O1183     Cr1187   1.955       .  S
O1183      C1184   1.258       .  A
Cr1185     O1188   1.774       .  S
Cr1186     O1188   1.769       .  S
Cr1187     O1188   1.730       .  S
O1189     Cr1207   2.053       .  S
O1190     Cr1207   2.003       .  S
O1190      C1191   1.268       .  A
C1191      O1192   1.266       .  A
C1191      C1323   1.473       .  S
O1192     Cr1208   1.996       .  S
O1193     Cr1208   2.070       .  S
O1193      C1194   1.284       .  A
C1194      O1195   1.261       .  A
O1195     Cr1209   1.963       .  S
O1196      C1197   1.241   1_545  A
C1197      C1294   1.474       .  S
O1198     Cr1207   2.068       .  S
O1199     Cr1207   1.982       .  S
O1199      C1200   1.263       .  A
C1200      O1201   1.270       .  A
C1200      C1376   1.475       .  S
O1201     Cr1208   2.017       .  S
O1202     Cr1208   2.070       .  S
O1202      C1203   1.263       .  A
C1203      O1204   1.242       .  A
O1204     Cr1209   1.946       .  S
O1205      C1206   1.263       .  A
C1206      C1263   1.471       .  S
Cr1207     O1210   1.773       .  S
Cr1208     O1210   1.770       .  S
Cr1209     O1210   1.735       .  S
O1211     Cr1229   2.085       .  S
O1211      C1219   1.289       .  A
O1212     Cr1229   1.975       .  S
O1212      C1213   1.262       .  A
C1213      O1214   1.272       .  A
C1213      C1565   1.470       .  S
O1214     Cr1230   2.011       .  S
O1215     Cr1230   2.060       .  S
O1215      C1216   1.256       .  A
C1216      O1217   1.242       .  A
C1216      C1260   1.484       .  S
O1217     Cr1231   1.971       .  S
O1218     Cr1231   1.953       .  S
O1218      C1219   1.261       .  A
C1219      C1241   1.470       .  S
O1220     Cr1229   2.083       .  S
O1221     Cr1229   2.006       .  S
O1221      C1222   1.270       .  A
C1222      O1223   1.262       .  A
C1222      C1486   1.461       .  S
O1223     Cr1230   1.966       .  S
O1224     Cr1230   2.106       .  S
O1224      C1225   1.289       .  A
C1225      O1226   1.259       .  A
O1226     Cr1231   1.938       .  S
O1227      C1228   1.244   1_455  A
C1228      C1307   1.492       .  S
Cr1229     O1232   1.783       .  S
Cr1230     O1232   1.775       .  S
Cr1231     O1232   1.715       .  S
O1233      C1241   1.265       .  A
O1234     Cr1251   1.941       .  S
O1234      C1235   1.241       .  A
C1235      O1236   1.263       .  A
O1236     Cr1252   2.069       .  S
O1237     Cr1252   1.998       .  S
O1237      C1238   1.265       .  A
C1238      O1239   1.263       .  A
C1238      C1552   1.458       .  S
O1239     Cr1253   1.976       .  S
O1240     Cr1253   2.058       .  S
O1242      C1250   1.240   1_455  A
O1243     Cr1251   1.963       .  S
O1243      C1244   1.260       .  A
C1244      O1245   1.281       .  A
O1245     Cr1252   2.061       .  S
O1246     Cr1252   1.995       .  S
O1246      C1247   1.268       .  A
C1247      O1248   1.266       .  A
C1247      C1477   1.472       .  S
O1248     Cr1253   2.004       .  S
O1249     Cr1253   2.056       .  S
C1250      C1316   1.471       .  S
Cr1251     O1254   1.734       .  S
Cr1252     O1254   1.770       .  S
Cr1253     O1254   1.771       .  S
O1255     Cr1273   2.085       .  S
O1255      C1263   1.286       .  A
O1256     Cr1273   1.972       .  S
O1256      C1257   1.264       .  A
C1257      O1258   1.271       .  A
C1257      C1433   1.472       .  S
O1258     Cr1274   2.015       .  S
O1259     Cr1274   2.061       .  S
O1259      C1260   1.257       .  A
C1260      O1261   1.242       .  A
O1261     Cr1275   1.967       .  S
O1262     Cr1275   1.956       .  S
O1262      C1263   1.261       .  A
O1264     Cr1273   2.082       .  S
O1265     Cr1273   1.998       .  S
O1265      C1266   1.268       .  A
C1266      O1267   1.263       .  A
C1266      C1332   1.462       .  S
O1267     Cr1274   1.976       .  S
O1268     Cr1274   2.097       .  S
O1268      C1269   1.287       .  A
C1269      O1270   1.261       .  A
O1270     Cr1275   1.938       .  S
O1271      C1272   1.243   1_545  A
C1272      C1285   1.491       .  S
Cr1273     O1276   1.782       .  S
Cr1274     O1276   1.776       .  S
Cr1275     O1276   1.716       .  S
O1277     Cr1295   2.077   1_455  S
O1278     Cr1295   2.003       .  S
O1278      C1279   1.270       .  A
C1279      O1280   1.262       .  A
C1279      C1367   1.463       .  S
O1280     Cr1296   1.973       .  S
O1281     Cr1296   2.054       .  S
O1281      C1282   1.279       .  A
C1282      O1283   1.263       .  A
O1283     Cr1297   1.968       .  S
O1284      C1285   1.242       .  A
O1286     Cr1295   2.053       .  S
O1286      C1294   1.279       .  A
O1287     Cr1295   1.980       .  S
O1287      C1288   1.262       .  A
C1288      O1289   1.262       .  A
C1288      C1442   1.455       .  S
O1289     Cr1296   1.992       .  S
O1290     Cr1296   2.076       .  S
O1290      C1291   1.263       .  A
C1291      O1292   1.239       .  A
C1291      C1313   1.480       .  S
O1292     Cr1297   1.960       .  S
O1293     Cr1297   1.993       .  S
O1293      C1294   1.275       .  A
Cr1295     O1298   1.788       .  S
Cr1296     O1298   1.786       .  S
Cr1297     O1298   1.729       .  S
O1299     Cr1317   2.083       .  S
O1300     Cr1317   1.996       .  S
O1300      C1301   1.266       .  A
C1301      O1302   1.264       .  A
C1301      C1543   1.464       .  S
O1302     Cr1318   1.982       .  S
O1303     Cr1318   2.052       .  S
O1303      C1304   1.279       .  A
C1304      O1305   1.265       .  A
O1305     Cr1319   1.972       .  S
O1306      C1307   1.243       .  A
O1308     Cr1317   2.046       .  S
O1308      C1316   1.276       .  A
O1309     Cr1317   1.979       .  S
O1309      C1310   1.263       .  A
C1310      O1311   1.262       .  A
C1310      C1574   1.456       .  S
O1311     Cr1318   1.991       .  S
O1312     Cr1318   2.072       .  S
O1312      C1313   1.262       .  A
C1313      O1314   1.240       .  A
O1314     Cr1319   1.963       .  S
O1315     Cr1319   1.997       .  S
O1315      C1316   1.276       .  A
Cr1317     O1320   1.788       .  S
Cr1318     O1320   1.786       .  S
Cr1319     O1320   1.730       .  S
O1321     Cr1339   2.060       .  S
O1321      C1329   1.281       .  A
O1322      C1323   1.268       .  A
C1323      O1324   1.267       .  A
O1324     Cr1340   1.997       .  S
O1325     Cr1340   2.071       .  S
C1326      O1327   1.234       .  A
C1326      C1414   1.472       .  S
O1327     Cr1341   1.941       .  S
O1328     Cr1341   1.967       .  S
O1328      C1329   1.273       .  A
C1329      C1448   1.467       .  S
O1330     Cr1339   2.092       .  S
O1330      C1338   1.268       .  A
O1331      C1332   1.266       .  A
C1332      O1333   1.264       .  A
O1333     Cr1340   1.985       .  S
O1334     Cr1340   2.083       .  S
C1335      O1336   1.265       .  A
C1335      C1357   1.464       .  S
O1336     Cr1341   1.965       .  S
O1337     Cr1341   1.917       .  S
O1337      C1338   1.230       .  A
C1338      C1373   1.486       .  S
Cr1339     O1342   1.781       .  S
Cr1341     O1342   1.721       .  S
O1343     Cr1361   2.006       .  S
O1343      C1351   1.262   1_556  A
O1344     Cr1361   2.016       .  S
O1344      C1345   1.265   1_556  A
C1345      O1346   1.258       .  A
O1346     Cr1362   1.988       .  S
O1347     Cr1362   2.037       .  S
O1347      C1348   1.277       .  A
C1348      O1349   1.267       .  A
C1348      C1370   1.474       .  S
O1349     Cr1363   1.965       .  S
O1350     Cr1363   2.006       .  S
O1350      C1351   1.259       .  A
C1351      C1404   1.462       .  S
O1352     Cr1361   2.079       .  S
O1352      C1360   1.271   1_556  A
O1353     Cr1361   1.946       .  S
O1353      C1354   1.260   1_556  A
C1354      O1355   1.276       .  A
O1355     Cr1362   2.029       .  S
O1356     Cr1362   2.029       .  S
O1356      C1357   1.261       .  A
C1357      O1358   1.246       .  A
O1358     Cr1363   1.934       .  S
O1359     Cr1363   1.975       .  S
O1359      C1360   1.243       .  A
C1360      C1417   1.461       .  S
Cr1361     O1364   1.791   1_556  S
Cr1362     O1364   1.771       .  S
Cr1363     O1364   1.734       .  S
O1365     Cr1383   2.016       .  S
O1365      C1373   1.276       .  A
O1366      C1367   1.250       .  A
C1367      O1368   1.244       .  A
O1368     Cr1384   1.966       .  S
O1369     Cr1384   2.007   1_455  S
C1370      O1371   1.269       .  A
O1371     Cr1385   1.999       .  S
O1372     Cr1385   2.009       .  S
O1372      C1373   1.287       .  A
O1374     Cr1383   2.045       .  S
O1374      C1382   1.248       .  A
O1375      C1376   1.282   1_455  A
C1376      O1377   1.293       .  A
O1377     Cr1384   2.044       .  S
O1378     Cr1384   2.018   1_455  S
C1379      O1380   1.244       .  A
C1379      C1401   1.469       .  S
O1380     Cr1385   1.969       .  S
O1381     Cr1385   1.960       .  S
O1381      C1382   1.231       .  A
C1382      C1439   1.472       .  S
Cr1383     O1386   1.811       .  S
Cr1385     O1386   1.733       .  S
O1387     Cr1405   2.006       .  S
O1387      C1395   1.277       .  A
O1388     Cr1405   1.971   1_556  S
O1388      C1389   1.248   1_556  A
C1389      O1390   1.244       .  A
C1389      C1521   1.460       .  S
O1390     Cr1406   1.960       .  S
O1391     Cr1406   1.993       .  S
O1391      C1392   1.267       .  A
C1392      O1393   1.276       .  A
C1392      C1436   1.467       .  S
O1393     Cr1407   2.009       .  S
O1394     Cr1407   2.018       .  S
O1394      C1395   1.282       .  A
C1395      C1426   1.477       .  S
O1396     Cr1405   2.020   1_556  S
O1396      C1404   1.247   1_556  A
O1397     Cr1405   2.007   1_556  S
O1397      C1398   1.286   1_556  A
C1398      O1399   1.288       .  A
O1399     Cr1406   2.019       .  S
O1400     Cr1406   2.023       .  S
O1400      C1401   1.253       .  A
C1401      O1402   1.240       .  A
O1402     Cr1407   1.972       .  S
O1403     Cr1407   1.970       .  S
O1403      C1404   1.234       .  A
Cr1405     O1408   1.795       .  S
Cr1406     O1408   1.782       .  S
Cr1407     O1408   1.739       .  S
O1409     Cr1427   2.038   1_556  S
O1409      C1417   1.261   1_556  A
O1410     Cr1427   2.030   1_556  S
O1410      C1411   1.275   1_556  A
C1411      O1412   1.265       .  A
O1412     Cr1428   1.979       .  S
O1413     Cr1428   2.082       .  S
O1413      C1414   1.280       .  A
C1414      O1415   1.259       .  A
O1415     Cr1429   1.964       .  S
O1416     Cr1429   1.955       .  S
O1416      C1417   1.243       .  A
O1418     Cr1427   2.078       .  S
O1418      C1426   1.286       .  A
O1419     Cr1427   1.969       .  S
O1419      C1420   1.262       .  A
C1420      O1421   1.267       .  A
C1420      C1508   1.463       .  S
O1421     Cr1428   2.011       .  S
O1422     Cr1428   2.043       .  S
O1422      C1423   1.259       .  A
C1423      O1424   1.249       .  A
C1423      C1445   1.473       .  S
O1424     Cr1429   1.967       .  S
O1425     Cr1429   1.960       .  S
O1425      C1426   1.262       .  A
Cr1427     O1430   1.769       .  S
Cr1428     O1430   1.787       .  S
Cr1429     O1430   1.736       .  S
O1431     Cr1449   2.009       .  S
O1431      C1439   1.259       .  A
O1432     Cr1449   2.032       .  S
O1432      C1433   1.274       .  A
C1433      O1434   1.264       .  A
O1434     Cr1450   1.972       .  S
O1435     Cr1450   2.073       .  S
O1435      C1436   1.285       .  A
C1436      O1437   1.259       .  A
O1437     Cr1451   1.942       .  S
O1438     Cr1451   2.004       .  S
O1438      C1439   1.259       .  A
O1440     Cr1449   2.080       .  S
O1440      C1448   1.280       .  A
O1441     Cr1449   1.950       .  S
O1441      C1442   1.255       .  A
C1442      O1443   1.271       .  A
O1443     Cr1450   2.025       .  S
O1444     Cr1450   2.039       .  S
O1444      C1445   1.259       .  A
C1445      O1446   1.250       .  A
O1446     Cr1451   1.970       .  S
O1447     Cr1451   1.939       .  S
O1447      C1448   1.245       .  A
Cr1449     O1452   1.770       .  S
Cr1450     O1452   1.766       .  S
Cr1451     O1452   1.731       .  S
O1453     Cr1471   1.970       .  S
O1453      C1461   1.261       .  A
O1454     Cr1471   1.951       .  S
O1454      C1455   1.243       .  A
C1455      O1456   1.260   1_556  A
C1455      C1536   1.471       .  S
O1456     Cr1472   2.045       .  S
O1457     Cr1472   2.014       .  S
O1457      C1458   1.273   1_554  A
C1458      O1459   1.268       .  A
O1459     Cr1473   1.997       .  S
O1460     Cr1473   2.053       .  S
O1460      C1461   1.279       .  A
C1461      C1546   1.455       .  S
O1462     Cr1471   1.960       .  S
O1462      C1470   1.243       .  A
O1463     Cr1471   1.945       .  S
O1463      C1464   1.259       .  A
C1464      O1465   1.284   1_556  A
C1464      C1505   1.466       .  S
O1465     Cr1472   2.067       .  S
O1466     Cr1472   1.988       .  S
O1466      C1467   1.263   1_554  A
C1467      O1468   1.265       .  A
O1468     Cr1473   2.005       .  S
O1469     Cr1473   2.073       .  S
O1469      C1470   1.267       .  A
C1470      C1489   1.485       .  S
Cr1471     O1474   1.738       .  S
Cr1472     O1474   1.774   1_554  S
Cr1473     O1474   1.771       .  S
O1475     Cr1493   2.088       .  S
O1475      C1483   1.284       .  A
O1476      C1477   1.262       .  A
C1477      O1478   1.274       .  A
O1478     Cr1494   2.022       .  S
O1479     Cr1494   2.069       .  S
C1480      O1481   1.243       .  A
C1480      C1502   1.498       .  S
O1481     Cr1495   1.970       .  S
O1482     Cr1495   1.950       .  S
O1482      C1483   1.256       .  A
C1483      C1580   1.466       .  S
O1484     Cr1493   2.074       .  S
O1484      C1492   1.258       .  A
O1485      C1486   1.266       .  A
C1486      O1487   1.263       .  A
O1487     Cr1494   1.984       .  S
O1488     Cr1494   2.092       .  S
C1489      O1490   1.269       .  A
O1490     Cr1495   1.944       .  S
O1491     Cr1495   1.970       .  S
O1491      C1492   1.245       .  A
C1492      C1549   1.485       .  S
Cr1493     O1496   1.790       .  S
Cr1495     O1496   1.723       .  S
O1497     Cr1515   2.044       .  S
O1497      C1505   1.280   1_554  A
O1498     Cr1515   1.994       .  S
O1498      C1499   1.264       .  A
C1499      O1500   1.262   1_554  A
O1500     Cr1516   1.993       .  S
O1501     Cr1516   2.060       .  S
O1501      C1502   1.262       .  A
C1502      O1503   1.252       .  A
O1503     Cr1517   1.990       .  S
O1504     Cr1517   1.953       .  S
O1504      C1505   1.270       .  A
O1506     Cr1515   2.068       .  S
O1506      C1514   1.265   1_554  A
O1507     Cr1515   2.016       .  S
O1507      C1508   1.274       .  A
C1508      O1509   1.267   1_554  A
O1509     Cr1516   1.976       .  S
O1510     Cr1516   2.090       .  S
O1510      C1511   1.277       .  A
C1511      O1512   1.243       .  A
C1511      C1577   1.460       .  S
O1512     Cr1517   1.965       .  S
O1513     Cr1517   1.897       .  S
O1513      C1514   1.238       .  A
C1514      C1527   1.486   1_556  S
Cr1515     O1518   1.789   1_554  S
Cr1516     O1518   1.794       .  S
Cr1517     O1518   1.721       .  S
O1519     Cr1537   2.078       .  S
O1519      C1527   1.264       .  A
O1520     Cr1537   2.004       .  S
O1520      C1521   1.269       .  A
C1521      O1522   1.260   1_554  A
O1522     Cr1538   1.969       .  S
O1523     Cr1538   2.054       .  S
O1523      C1524   1.282       .  A
C1524      O1525   1.268       .  A
C1524      C1568   1.461       .  S
O1525     Cr1539   1.970       .  S
O1526     Cr1539   1.977       .  S
O1526      C1527   1.246   1_556  A
O1528     Cr1537   2.089       .  S
O1528      C1536   1.283   1_554  A
O1529     Cr1537   1.967       .  S
O1529      C1530   1.262       .  A
C1530      O1531   1.268   1_554  A
O1531     Cr1538   2.007       .  S
O1532     Cr1538   2.062       .  S
O1532      C1533   1.261       .  A
C1533      O1534   1.245       .  A
C1533      C1555   1.478       .  S
O1534     Cr1539   1.961       .  S
O1535     Cr1539   1.978       .  S
O1535      C1536   1.260       .  A
Cr1537     O1540   1.787   1_554  S
Cr1538     O1540   1.776       .  S
Cr1539     O1540   1.724       .  S
O1541     Cr1559   2.069       .  S
O1541      C1549   1.268       .  A
O1542      C1543   1.267       .  A
C1543      O1544   1.266       .  A
O1544     Cr1560   1.984       .  S
O1545     Cr1560   2.052   1_545  S
C1546      O1547   1.259       .  A
O1547     Cr1561   1.968       .  S
O1548     Cr1561   1.895       .  S
O1548      C1549   1.239       .  A
O1550     Cr1559   2.025       .  S
O1550      C1558   1.272       .  A
O1551      C1552   1.262   1_545  A
C1552      O1553   1.260       .  A
O1553     Cr1560   1.985       .  S
O1554     Cr1560   2.074   1_545  S
C1555      O1556   1.238       .  A
O1556     Cr1561   1.953       .  S
O1557     Cr1561   2.000       .  S
O1557      C1558   1.279       .  A
C1558      C1571   1.471       .  S
Cr1559     O1562   1.792       .  S
Cr1561     O1562   1.734       .  S
O1563     Cr1581   2.046       .  S
O1563      C1571   1.269       .  A
O1564     Cr1581   2.003       .  S
O1564      C1565   1.263       .  A
C1565      O1566   1.265       .  A
O1566     Cr1582   1.994       .  S
O1567     Cr1582   2.053       .  S
O1567      C1568   1.279       .  A
C1568      O1569   1.262       .  A
O1569     Cr1583   1.955       .  S
O1570     Cr1583   1.956       .  S
O1570      C1571   1.248       .  A
O1572     Cr1581   2.062       .  S
O1572      C1580   1.273       .  A
O1573     Cr1581   1.968       .  S
O1573      C1574   1.264       .  A
C1574      O1575   1.270       .  A
O1575     Cr1582   2.010       .  S
O1576     Cr1582   2.041       .  S
O1576      C1577   1.260       .  A
C1577      O1578   1.243       .  A
O1578     Cr1583   1.918       .  S
O1579     Cr1583   1.957       .  S
O1579      C1580   1.253       .  A
Cr1581     O1584   1.779       .  S
Cr1582     O1584   1.769       .  S
Cr1583     O1584   1.731       .  S
