geometry optimzed in LAMMPS
_audit_creation_date              2020-12-01 
_audit_creation_method            'lammps2cif' 
_symmetry_space_group_name_H-M    'P1' 
_symmetry_Int_Tables_number       1 
_symmetry_cell_setting            triclinic 
loop_ 
_symmetry_equiv_pos_as_xyz 
  x,y,z 
_cell_length_a                    23.92855856 
_cell_length_b                    23.841577448352915 
_cell_length_c                    76.93388576393929 
_cell_angle_alpha                 89.99943349778545 
_cell_angle_beta                  89.78394613953046 
_cell_angle_gamma                 120.11977141233207 
loop_ 
_atom_site_label 
_atom_site_type_symbol 
_atom_site_fract_x 
_atom_site_fract_y 
_atom_site_fract_z 
_atom_site_charge 
Zn1        Zn  0.20860181  0.42098240  0.36584637     1.49700
Zn2        Zn  0.07568622  0.28341194  0.36542420     1.49400
Zn3        Zn  0.21324893  0.28810238  0.36576300     1.49100
Zn4        Zn  0.16360241  0.32985894  0.39474397     1.49500
O5          O  0.16552047  0.33058788  0.37088721    -1.81000
O6          O  0.14944587  0.43466170  0.35048161    -0.71600
O7          O  0.06339890  0.21088976  0.35005257    -0.71500
O8          O  0.28606756  0.34802598  0.35022324    -0.71000
O9          O  0.05664699  0.33997550  0.35012574    -0.71700
O10         O  0.28498951  0.44121978  0.35056394    -0.71300
O11         O  0.15724670  0.21164034  0.35052111    -0.71800
O12         O  0.24459697  0.34389268  0.40434312    -0.71200
O13         O  0.02078188  0.25319015  0.38800446    -0.72000
O14         O  0.24478993  0.26627300  0.38858847    -0.71400
O15         O  0.09510517  0.24713701  0.40353840    -0.71800
O16         O  0.14938235  0.39797030  0.40389369    -0.71800
O17         O  0.23142013  0.47375912  0.38879890    -0.71500
C18         C  0.09227876  0.39816430  0.34486043     0.80200
C19         C  0.10002063  0.18977651  0.34479690     0.80700
C20         C  0.30732571  0.40596034  0.34494414     0.79700
C21         C  0.25818958  0.29948016  0.40258975     0.80100
C22         C  0.03864422  0.23786656  0.40198625     0.81200
C23         C  0.19698135  0.45479601  0.40263809     0.80300
Zn24       Zn  0.09075656  0.04083306  0.31073350     1.49700
Zn25       Zn  0.00316941  0.50387361  0.28248434     1.49400
Zn26       Zn  0.45468824  0.41090936  0.31119181     1.49100
Zn27       Zn  0.45766749  0.04608023  0.31033647     1.49500
O28         O  0.00306347  0.50132342  0.30628185    -1.81000
O29         O  0.14286440  0.06310975  0.28759770    -0.71600
O30         O  0.42206484  0.43514390  0.27281426    -0.71500
O31         O  0.01025843  0.38935906  0.32607636    -0.71000
O32         O  0.06669610  0.98160678  0.27251949    -0.71700
O33         O  0.10473188  0.48245119  0.32658582    -0.71300
O34         O  0.42725072  0.35903939  0.28794912    -0.71800
O35         O  0.38129170  0.49036301  0.32656272    -0.71200
O36         O  0.51110952  0.07375871  0.27116059    -0.72000
O37         O  0.38035491  0.39605672  0.32643852    -0.71400
O38         O  0.43501775  0.07560766  0.28722955    -0.71800
O39         O  0.01759084  0.11818891  0.32618471    -0.71800
O40         O  0.11061012  0.11733042  0.32592595    -0.71500
C41         C  0.12352249  0.02904975  0.27372521     0.80200
C42         C  0.41324306  0.37847333  0.27398691     0.80700
C43         C  0.06763940  0.42444654  0.33177311     0.79700
C44         C  0.35889226  0.43224737  0.33190496     0.80100
C45         C  0.46674055  0.08726174  0.27296878     0.81200
C46         C  0.07502156  0.13920138  0.33156474     0.80300
C47         C  0.16383591  0.33400004  0.80625134     0.48600
H48         H  0.16379510  0.33434895  0.79173608    -0.00500
C49         C  0.16408446  0.33327366  0.83969032     0.48600
H50         H  0.16418235  0.33294939  0.85411716    -0.00500
C51         C  0.23158153  0.36723294  0.81360641    -0.14100
C52         C  0.13048902  0.36815479  0.81387524    -0.13900
C53         C  0.12962019  0.26589088  0.81363519    -0.14300
C54         C  0.23556995  0.36951615  0.83142540    -0.14300
C55         C  0.12801966  0.36896379  0.83173368    -0.13800
C56         C  0.12852545  0.26168780  0.83147194    -0.14100
C57         C  0.49783157  0.50057584  0.83840574     0.48600
H58         H  0.49839715  0.50064418  0.82397746    -0.00500
C59         C  0.50084628  0.00112583  0.87196221     0.48600
H60         H  0.99954954  0.99854049  0.88633333    -0.00500
C61         C  0.03969974  0.07053735  0.84652403    -0.14700
C62         C  0.42622715  0.46871284  0.84642595    -0.13900
C63         C  0.02821396  0.45914093  0.84711066    -0.14300
C64         C  0.03940889  0.06647407  0.86434207    -0.14300
C65         C  0.42950262  0.47226332  0.86423555    -0.13800
C66         C  0.02367166  0.45914528  0.86493473    -0.14100
C67         C  0.16533622  0.33162072  0.53547532     0.48600
H68         H  0.16476484  0.33127789  0.54998999    -0.00500
C69         C  0.16655479  0.33240688  0.50202172     0.48600
H70         H  0.16714743  0.33280215  0.48759356    -0.00500
C71         C  0.20128310  0.39968298  0.52810852    -0.14100
C72         C  0.19772420  0.29629770  0.52803522    -0.13900
C73         C  0.09802293  0.29935263  0.52788928    -0.14300
C74         C  0.20318164  0.40383989  0.51027825    -0.14300
C75         C  0.20096434  0.29548433  0.51021148    -0.13800
C76         C  0.09478619  0.29744177  0.51006689    -0.14100
C77         C  0.33576399  0.16811413  0.47014088     0.48600
H78         H  0.33623733  0.16825894  0.45562770    -0.00500
C79         C  0.33467517  0.16775042  0.50360516     0.48600
H80         H  0.33426349  0.16764277  0.51803608    -0.00500
C81         C  0.29821621  0.10026237  0.47762852    -0.14100
C82         C  0.40297086  0.19815398  0.47770032    -0.13900
C83         C  0.30569044  0.20570955  0.47756463    -0.14300
C84         C  0.29676447  0.09625779  0.49544752    -0.14300
C85         C  0.40621028  0.20106238  0.49550479    -0.13800
C86         C  0.30185520  0.20605364  0.49536998    -0.14100
Zn87       Zn  0.38079051  0.12945278  0.62745073     1.49700
Zn88       Zn  0.24305304  0.11975923  0.62791817     1.49400
Zn89       Zn  0.33275221  0.16827385  0.66040867     1.49100
Zn90       Zn  0.37056904  0.25805126  0.62757500     1.49500
O91         O  0.33180991  0.16896737  0.63543320    -1.81000
O92         O  0.32810450  0.05947959  0.61047191    -0.71600
O93         O  0.18254291  0.09056007  0.64866229    -0.71500
O94         O  0.37488746  0.12638922  0.67039882    -0.71000
O95         O  0.22967044  0.04735427  0.61204327    -0.71700
O96         O  0.41220869  0.09783548  0.64764629    -0.71300
O97         O  0.24963812  0.12714756  0.67110523    -0.71800
O98         O  0.40357366  0.31962860  0.64804506    -0.71200
O99         O  0.22484092  0.17173150  0.61092026    -0.72000
O100        O  0.37568375  0.25196204  0.67047138    -0.71400
O101        O  0.31078450  0.27101035  0.61197945    -0.71800
O102        O  0.43983043  0.27580220  0.61027205    -0.71800
O103        O  0.45202349  0.18919672  0.61149395    -0.71500
C104        C  0.27061095  0.03527941  0.60500011     0.80200
C105        C  0.19349822  0.09788533  0.66499106     0.80700
C106        C  0.40503001  0.10070769  0.66402927     0.79700
C107        C  0.40151116  0.30833304  0.66434229     0.80100
C108        C  0.25763675  0.22927168  0.60518858     0.81200
C109        C  0.46397453  0.24253419  0.60461693     0.80300
Zn110      Zn  0.08929394  0.04969700  0.71409972     1.49700
Zn111      Zn  0.00058041  0.00067282  0.68112914     1.49400
Zn112      Zn  0.45539040  0.40797605  0.71378854     1.49100
Zn113      Zn  0.45281962  0.04547276  0.71324627     1.49500
O114        O  0.00053895  0.00111198  0.70617898    -1.81000
O115        O  0.15112444  0.07958104  0.69357640    -0.71600
O116        O  0.45673606  0.41747223  0.67067120    -0.71500
O117        O  0.01915261  0.40231762  0.73052150    -0.71000
O118        O  0.08455129  0.04253783  0.67102000    -0.71700
O119        O  0.10961152  0.49841899  0.73052628    -0.71300
O120        O  0.42514305  0.34880544  0.69293936    -0.71800
O121        O  0.37824990  0.47955522  0.73049048    -0.71200
O122        O  0.45999599  0.04625942  0.66985718    -0.72000
O123        O  0.38363034  0.38901219  0.73040455    -0.71400
O124        O  0.42455843  0.07766401  0.69250204    -0.71800
O125        O  0.00494101  0.11263542  0.73074148    -0.71800
O126        O  0.10237685  0.12213611  0.72993553    -0.71500
C127        C  0.14053424  0.07214503  0.67723108     0.80200
C128        C  0.42919228  0.36079649  0.67665471     0.80700
C129        C  0.07378130  0.44230262  0.73692216     0.79700
C130        C  0.36251156  0.42411453  0.73666325     0.80100
C131        C  0.43129003  0.07367096  0.67612616     0.81200
C132        C  0.06188374  0.13570766  0.73656819     0.80300
C133        C  0.33428203  0.16794878  0.20590624     0.48600
H134        H  0.33437558  0.16778148  0.22041754    -0.00500
C135        C  0.33396719  0.16810262  0.17244690     0.48600
H136        H  0.33386797  0.16819071  0.15801957    -0.00500
C137        C  0.26651986  0.13139456  0.19853886    -0.14100
C138        C  0.36578113  0.23593295  0.19844697    -0.13900
C139        C  0.37062034  0.13676137  0.19831147    -0.14300
C140        C  0.26249063  0.13094058  0.18072167    -0.14300
C141        C  0.36877528  0.23982374  0.18059396    -0.13800
C142        C  0.37097395  0.13347257  0.18048527    -0.14100
C143        C  0.99984852  0.00268411  0.14071487     0.48600
H144        H  0.99982551  0.00288800  0.12620770    -0.00500
C145        C  0.49885565  0.99941005  0.17375674     0.48600
H146        H  0.49871883  0.99978317  0.18818435    -0.00500
C147        C  0.47529357  0.43574150  0.14770568    -0.14100
C148        C  0.06751542  0.04122175  0.14812759    -0.13900
C149        C  0.46115824  0.02835248  0.14766690    -0.14300
C150        C  0.47148562  0.43099195  0.16553681    -0.14300
C151        C  0.07154762  0.04145075  0.16594380    -0.13800
C152        C  0.46034960  0.03201472  0.16548123    -0.14100
Zn153      Zn  0.16635323  0.33294351  0.99603462     1.49700
Zn154      Zn  0.22806910  0.31048452  0.96262259     1.49400
Zn155      Zn  0.07898235  0.26961366  0.96325216     1.49100
Zn156      Zn  0.18691262  0.41920034  0.96314215     1.49500
O157        O  0.16500676  0.33303823  0.97095289    -1.81000
O158        O  0.21946290  0.30123774  0.00545422    -0.71600
O159        O  0.18613665  0.23956647  0.94503403    -0.71500
O160        O  0.01805044  0.23300725  0.98402778    -0.71000
O161        O  0.26615532  0.28445908  0.98259486    -0.71700
O162        O  0.08269834  0.27946852  0.00664095    -0.71300
O163        O  0.08054917  0.20220633  0.94777195    -0.71800
O164        O  0.11645390  0.41739347  0.94838485    -0.71200
O165        O  0.29447566  0.38034733  0.94725462    -0.72000
O166        O  0.04862098  0.31123705  0.94587380    -0.71400
O167        O  0.25626009  0.44813799  0.94502340    -0.71800
O168        O  0.21538229  0.48211722  0.98359541    -0.71800
O169        O  0.19951262  0.41773770  0.00622636    -0.71500
C170        C  0.25633544  0.28333326  0.99896809     0.80200
C171        C  0.12826610  0.20309111  0.94014330     0.80700
C172        C  0.02754589  0.24256712  0.00038495     0.79700
C173        C  0.06942952  0.36925283  0.94094001     0.80100
C174        C  0.29270183  0.42705042  0.93981125     0.81200
C175        C  0.21778899  0.47307094  0.99990757     0.80300
Zn176      Zn  0.42326731  0.20260167  0.04852407     1.49700
Zn177      Zn  0.33597992  0.16970142  0.01531734     1.49400
Zn178      Zn  0.27904424  0.08325833  0.04891672     1.49100
Zn179      Zn  0.30476151  0.22810949  0.04809659     1.49500
O180        O  0.33581091  0.17091125  0.04051673    -1.81000
O181        O  0.48475306  0.22640711  0.02802195    -0.71600
O182        O  0.27956270  0.08502746  0.00573889    -0.71500
O183        O  0.32614638  0.05714009  0.06555842    -0.71000
O184        O  0.41937248  0.19566100  0.00516981    -0.71700
O185        O  0.42751347  0.13927232  0.06484532    -0.71300
O186        O  0.24057818  0.02015992  0.02877709    -0.71800
O187        O  0.23338375  0.18276866  0.06563388    -0.71200
O188        O  0.30856203  0.22537560  0.00454858    -0.72000
O189        O  0.21304933  0.08085766  0.06550259    -0.71400
O190        O  0.27807793  0.26134008  0.02728815    -0.71800
O191        O  0.36903912  0.29893274  0.06352015    -0.71800
O192        O  0.44810630  0.27571866  0.06526333    -0.71500
C193        C  0.47496358  0.21948548  0.01163283     0.80200
C194        C  0.24602599  0.02947433  0.01234333     0.80700
C195        C  0.38340413  0.08652357  0.07140232     0.79700
C196        C  0.20560952  0.12578519  0.07192774     0.80100
C197        C  0.28374340  0.25662269  0.01089814     0.81200
C198        C  0.41990152  0.30558835  0.07061446     0.80300
C199        C  0.45596356  0.38545444  0.13486635    -0.15400
C200        C  0.44902561  0.36368212  0.12037273     0.08700
C201        C  0.44561611  0.35145989  0.10229923     0.10500
C202        C  0.43930150  0.33831232  0.08701495    -0.16200
C203        C  0.39569127  0.06543795  0.08765159    -0.15400
C204        C  0.40245949  0.05750096  0.10281357     0.08700
C205        C  0.41220914  0.05283288  0.12073549     0.10500
C206        C  0.42846627  0.04596217  0.13501664    -0.16200
C207        C  0.17336424  0.11444392  0.08839882    -0.15400
C208        C  0.15831277  0.10650336  0.10357090     0.08700
C209        C  0.14246941  0.09405644  0.12140897     0.10500
C210        C  0.11822456  0.07554143  0.13555054    -0.16200
C211        C  0.42612697  0.06200300  0.17592659    -0.13300
C212        C  0.40455927  0.10308457  0.16990138    -0.28500
H213        H  0.41899290  0.04833466  0.18947824     0.15700
H214        H  0.41155384  0.11664775  0.15633742     0.16300
C215        C  0.39964021  0.30394870  0.17000009    -0.13300
C216        C  0.44071343  0.36666587  0.17599997    -0.28500
H217        H  0.38660935  0.29742170  0.15642538     0.15700
H218        H  0.45390738  0.37321369  0.18955549     0.16300
C219        C  0.13567055  0.07553497  0.17639081    -0.13300
C220        C  0.19832797  0.09720085  0.17029796    -0.28500
H221        H  0.12916657  0.08237414  0.18997029     0.15700
H222        H  0.20481163  0.09023519  0.15673119     0.16300
C223        C  0.23154459  0.45041135  0.54084127    -0.15400
C224        C  0.24555019  0.47344176  0.55520840     0.08700
C225        C  0.25292588  0.48723725  0.57320058     0.10500
C226        C  0.25522552  0.00259741  0.58861639    -0.16200
C227        C  0.49658222  0.26001871  0.58823029    -0.15400
C228        C  0.01036631  0.26017753  0.57280933     0.08700
C229        C  0.02328389  0.26613432  0.55480343     0.10500
C230        C  0.04671674  0.27656266  0.54047205    -0.16200
C231        C  0.21867743  0.26666661  0.54074966    -0.15400
C232        C  0.22754541  0.25396682  0.55526986     0.08700
C233        C  0.23290993  0.24839595  0.57338231     0.10500
C234        C  0.23993043  0.24349056  0.58871101    -0.16200
C235        C  0.26237559  0.03224564  0.50599919    -0.13300
C236        C  0.23843825  0.46795106  0.49981326    -0.28500
H237        H  0.25717086  0.03966265  0.51962831     0.15700
H238        H  0.24666996  0.46140913  0.48635964     0.16300
C239        C  0.46962358  0.22963433  0.50602054    -0.13300
C240        C  0.03122436  0.26827151  0.49947585    -0.28500
H241        H  0.46217962  0.21496422  0.51946237     0.15700
H242        H  0.03868214  0.28130378  0.48588402     0.16300
C243        C  0.27237529  0.24056849  0.50579458    -0.13300
C244        C  0.23127104  0.26177470  0.49974087    -0.28500
H245        H  0.28643084  0.24819556  0.51929249     0.15700
H246        H  0.21726718  0.25392229  0.48622426     0.16300
C247        C  0.32465845  0.44941002  0.92339199    -0.15400
C248        C  0.33942385  0.45571290  0.90822911     0.08700
C249        C  0.35480294  0.45629707  0.89048576     0.10500
C250        C  0.37890809  0.45900093  0.87652096    -0.16200
C251        C  0.04637920  0.37965165  0.92472980    -0.15400
C252        C  0.03914874  0.38770380  0.90958320     0.08700
C253        C  0.03792357  0.40125818  0.89171190     0.10500
C254        C  0.03566127  0.42163544  0.87752288    -0.16200
C255        C  0.11767170  0.17015382  0.92384539    -0.15400
C256        C  0.10971940  0.15513179  0.90869873     0.08700
C257        C  0.09626777  0.14011439  0.89088435     0.10500
C258        C  0.07602470  0.11671980  0.87679548    -0.16200
C259        C  0.28222787  0.38784829  0.80085299    -0.15400
C260        C  0.30435252  0.39543266  0.78638897     0.08700
C261        C  0.31650368  0.39934761  0.76833045     0.10500
C262        C  0.32956936  0.40585490  0.75304687    -0.16200
C263        C  0.09030973  0.42780529  0.75356239    -0.15400
C264        C  0.09586046  0.42064660  0.76886505     0.08700
C265        C  0.09991666  0.41175307  0.78689410     0.10500
C266        C  0.10854746  0.39741338  0.80126536    -0.16200
C267        C  0.07683594  0.16845573  0.75296653    -0.15400
C268        C  0.08296564  0.18138694  0.76825074     0.08700
C269        C  0.08949669  0.19330727  0.78633329     0.10500
C270        C  0.10179152  0.21519293  0.80084185    -0.16200
C271        C  0.05698737  0.42419632  0.83657651    -0.13300
C272        C  0.09718383  0.40169064  0.84248906    -0.28500
H273        H  0.04397807  0.41840717  0.82302084     0.15700
H274        H  0.11004770  0.40786574  0.85608996     0.16300
C275        C  0.36259697  0.43958802  0.83584040    -0.13300
C276        C  0.29954613  0.39977044  0.84188616    -0.28500
H277        H  0.37000031  0.45240224  0.82223791     0.15700
H278        H  0.29251313  0.38660474  0.85547445     0.16300
C279        C  0.07358231  0.13462353  0.83596884    -0.13300
C280        C  0.09601694  0.19747048  0.84202289    -0.28500
H281        H  0.07890282  0.12766181  0.82234027     0.15700
H282        H  0.09012301  0.20402453  0.85566041     0.16300
C283        C  0.38460755  0.28678565  0.21111254    -0.15400
C284        C  0.39041119  0.31017715  0.22536531     0.08700
C285        C  0.39174664  0.32526653  0.24320522     0.10500
C286        C  0.39597295  0.34144645  0.25823620    -0.16200
C287        C  0.44895742  0.10822385  0.25758268    -0.15400
C288        C  0.43783674  0.11419288  0.24263137     0.08700
C289        C  0.42379530  0.11564053  0.22487230     0.10500
C290        C  0.40474830  0.12016882  0.21075568    -0.16200
C291        C  0.21601626  0.09681326  0.21114413    -0.15400
C292        C  0.19274871  0.07673699  0.22530050     0.08700
C293        C  0.17755331  0.06084501  0.24304571     0.10500
C294        C  0.16099906  0.04813534  0.25803693    -0.16200
C295        C  0.21561701  0.49263256  0.41821891    -0.15400
C296        C  0.23603431  0.01146095  0.43305298     0.08700
C297        C  0.24922864  0.02608182  0.45084768     0.10500
C298        C  0.26638702  0.04949196  0.46505364    -0.16200
C299        C  0.00029132  0.21944059  0.41745087    -0.15400
C300        C  0.49082005  0.21707064  0.43328873     0.08700
C301        C  0.47665876  0.21719737  0.45109696     0.10500
C302        C  0.45366941  0.21375710  0.46526878    -0.16200
C303        C  0.29097531  0.24106873  0.46501929    -0.15400
C304        C  0.28789084  0.26017710  0.45076173     0.08700
C305        C  0.28727949  0.27325175  0.43288806     0.10500
C306        C  0.28085211  0.28313333  0.41786641    -0.16200
Zn307      Zn  0.21154960  0.92347566  0.36567507     1.49700
Zn308      Zn  0.07888768  0.78565330  0.36623205     1.49400
Zn309      Zn  0.21645046  0.79073601  0.36610214     1.49100
Zn310      Zn  0.16961972  0.83445449  0.39487460     1.49500
O311        O  0.16896419  0.83336794  0.37106384    -1.81000
O312        O  0.15093414  0.93682045  0.35077966    -0.71600
O313        O  0.06677744  0.71352879  0.35074216    -0.71500
O314        O  0.28925394  0.85020965  0.35062543    -0.71000
O315        O  0.05816891  0.84198958  0.35119326    -0.71700
O316        O  0.28619894  0.94238783  0.34993827    -0.71300
O317        O  0.16069828  0.71441869  0.35095983    -0.71800
O318        O  0.25191205  0.84969672  0.40396055    -0.71200
O319        O  0.02571002  0.75360235  0.38915302    -0.72000
O320        O  0.24628195  0.76791602  0.38895948    -0.71400
O321        O  0.10316578  0.75230103  0.40443002    -0.71800
O322        O  0.15486669  0.90249944  0.40362240    -0.71800
O323        O  0.23757927  0.97691178  0.38847726    -0.71500
C324        C  0.09319083  0.89989792  0.34560290     0.80200
C325        C  0.10328848  0.69241106  0.34539744     0.80700
C326        C  0.30916247  0.90718062  0.34476056     0.79700
C327        C  0.26167710  0.80252873  0.40271540     0.80100
C328        C  0.04551466  0.73961470  0.40301821     0.81200
C329        C  0.20364306  0.95854180  0.40239626     0.80300
Zn330      Zn  0.09303383  0.54334623  0.31131106     1.49700
Zn331      Zn  0.99857324  0.99533884  0.28179878     1.49400
Zn332      Zn  0.45435649  0.90824825  0.31132161     1.49100
Zn333      Zn  0.45757578  0.54806439  0.31135853     1.49500
O334        O  0.00085341  0.99817656  0.30565810    -1.81000
O335        O  0.14674797  0.56688426  0.28839825    -0.71600
O336        O  0.41836907  0.92409161  0.27302000    -0.71500
O337        O  0.00934803  0.88947848  0.32729180    -0.71000
O338        O  0.06940117  0.48847561  0.27288494    -0.71700
O339        O  0.10428197  0.98181206  0.32646757    -0.71300
O340        O  0.42523854  0.85102425  0.28905958    -0.71800
O341        O  0.38143916  0.98948571  0.32563238    -0.71200
O342        O  0.51774312  0.58598936  0.27360447    -0.72000
O343        O  0.38142543  0.89564911  0.32652709    -0.71400
O344        O  0.43435485  0.57746323  0.28832254    -0.71800
O345        O  0.02044564  0.62087262  0.32693258    -0.71800
O346        O  0.11315087  0.61924616  0.32669669    -0.71500
C347        C  0.12697643  0.53396185  0.27436217     0.80200
C348        C  0.40962011  0.86774073  0.27492024     0.80700
C349        C  0.06738122  0.92491339  0.33244470     0.79700
C350        C  0.35985344  0.93220362  0.33154349     0.80100
C351        C  0.46946671  0.59380546  0.27459694     0.81200
C352        C  0.07789277  0.64159351  0.33227364     0.80300
C353        C  0.16895152  0.83338061  0.80603624     0.48600
H354        H  0.16931414  0.83358209  0.79152060    -0.00500
C355        C  0.16799483  0.83317959  0.83947096     0.48600
H356        H  0.16756236  0.83302735  0.85389956    -0.00500
C357        C  0.23645093  0.86850769  0.81352839    -0.14100
C358        C  0.13373903  0.86600939  0.81346015    -0.13900
C359        C  0.13607712  0.76535350  0.81346944    -0.14300
C360        C  0.23974581  0.87037303  0.83138459    -0.14300
C361        C  0.13124197  0.86772338  0.83128881    -0.13800
C362        C  0.13357214  0.76156419  0.83133315    -0.14100
C363        C  0.50101127  0.00179278  0.83849849     0.48600
H364        H  0.50110120  0.00210413  0.82406993    -0.00500
C365        C  0.49661398  0.50030351  0.87188071     0.48600
H366        H  0.99652833  0.50039265  0.88676822    -0.00500
C367        C  0.03962794  0.57142766  0.84688723    -0.14700
C368        C  0.42972297  0.96968906  0.84670573    -0.13900
C369        C  0.03201085  0.95938158  0.84649371    -0.14300
C370        C  0.03874220  0.56780678  0.86473179    -0.14300
C371        C  0.43340782  0.97283641  0.86453476    -0.13800
C372        C  0.02820042  0.95949837  0.86432705    -0.14100
C373        C  0.17019660  0.83319566  0.53589912     0.48600
H374        H  0.17035002  0.83314939  0.55041467    -0.00500
C375        C  0.16992469  0.83341445  0.50245494     0.48600
H376        H  0.16976672  0.83353157  0.48802579    -0.00500
C377        C  0.20384290  0.90114676  0.52842053    -0.14100
C378        C  0.20412549  0.79960851  0.52831235    -0.13900
C379        C  0.10245789  0.79913123  0.52857613    -0.14300
C380        C  0.20538862  0.90506634  0.51059315    -0.14300
C381        C  0.20609427  0.79793134  0.51048329    -0.13800
C382        C  0.09853636  0.79730580  0.51075288    -0.14100
C383        C  0.33721873  0.66646113  0.47011617     0.48600
H384        H  0.33777611  0.66670137  0.45560480    -0.00500
C385        C  0.33595906  0.66606638  0.50358405     0.48600
H386        H  0.33537479  0.66583374  0.51801380    -0.00500
C387        C  0.29798658  0.59872130  0.47754703    -0.14100
C388        C  0.40427535  0.69490554  0.47773969    -0.13900
C389        C  0.30842559  0.70528609  0.47755675    -0.14300
C390        C  0.29673986  0.59470673  0.49536863    -0.14300
C391        C  0.40749632  0.69819119  0.49554878    -0.13800
C392        C  0.30452358  0.70565621  0.49535812    -0.14100
Zn393      Zn  0.38099968  0.62214026  0.62831481     1.49700
Zn394      Zn  0.24904838  0.62328827  0.62737412     1.49400
Zn395      Zn  0.33613206  0.66847591  0.66080206     1.49100
Zn396      Zn  0.38283008  0.75708185  0.62795301     1.49500
O397        O  0.33721832  0.66778882  0.63574159    -1.81000
O398        O  0.32641890  0.54925388  0.61207762    -0.71600
O399        O  0.18586849  0.59051870  0.64758765    -0.71500
O400        O  0.37496275  0.62413472  0.67153352    -0.71000
O401        O  0.23626020  0.55427832  0.61028382    -0.71700
O402        O  0.41114714  0.59259810  0.64910055    -0.71300
O403        O  0.25136541  0.62775693  0.67037334    -0.71800
O404        O  0.41238729  0.81926629  0.64841463    -0.71200
O405        O  0.23398917  0.68021898  0.61133207    -0.72000
O406        O  0.37914392  0.75290217  0.67117610    -0.71400
O407        O  0.32864011  0.77230078  0.61094715    -0.71800
O408        O  0.45501921  0.77223916  0.61194305    -0.71800
O409        O  0.45175352  0.67719806  0.61164247    -0.71500
C410        C  0.27293393  0.53371323  0.60486810     0.80200
C411        C  0.19568254  0.59783374  0.66396447     0.80700
C412        C  0.40385403  0.59667712  0.66542781     0.79700
C413        C  0.40712461  0.80909265  0.66481578     0.80100
C414        C  0.27249421  0.73555311  0.60489376     0.81200
C415        C  0.47150823  0.73357746  0.60553198     0.80300
Zn416      Zn  0.09276877  0.55080288  0.71317994     1.49700
Zn417      Zn  0.00266633  0.50205517  0.68055242     1.49400
Zn418      Zn  0.46083624  0.91604978  0.71369370     1.49100
Zn419      Zn  0.44980547  0.53852855  0.71436281     1.49500
O420        O  0.00357794  0.50322143  0.70567753    -1.81000
O421        O  0.15288638  0.57859963  0.69240530    -0.71600
O422        O  0.45917433  0.91898211  0.67040790    -0.71500
O423        O  0.01778687  0.89917879  0.73027246    -0.71000
O424        O  0.08619272  0.54323254  0.66985362    -0.71700
O425        O  0.10634135  0.99669994  0.73119224    -0.71300
O426        O  0.43025961  0.85313195  0.69326789    -0.71800
O427        O  0.37981625  0.98675876  0.72912614    -0.71200
O428        O  0.46075038  0.54475934  0.67143676    -0.72000
O429        O  0.39052829  0.89936393  0.73068332    -0.71400
O430        O  0.41960720  0.57026821  0.69396136    -0.71800
O431        O  0.01262514  0.61703291  0.73035480    -0.71800
O432        O  0.10916428  0.62478593  0.72881329    -0.71500
C433        C  0.14224703  0.57182693  0.67606020     0.80200
C434        C  0.43350212  0.86298352  0.67685007     0.80700
C435        C  0.07169666  0.93939592  0.73697906     0.79700
C436        C  0.36726643  0.93357064  0.73625540     0.80100
C437        C  0.42926073  0.56927098  0.67764569     0.81200
C438        C  0.06982086  0.63899155  0.73588992     0.80300
C439        C  0.33456533  0.66395208  0.20645784     0.48600
H440        H  0.33401688  0.66335779  0.22097121    -0.00500
C441        C  0.33573952  0.66521849  0.17300955     0.48600
H442        H  0.33624844  0.66567348  0.15858177    -0.00500
C443        C  0.26729610  0.62638314  0.19888308    -0.14100
C444        C  0.36481357  0.73205507  0.19909690    -0.13900
C445        C  0.37263477  0.63451915  0.19898364    -0.14300
C446        C  0.26410320  0.62651572  0.18105833    -0.14300
C447        C  0.36844623  0.73652518  0.18125480    -0.13800
C448        C  0.37401683  0.63218754  0.18114950    -0.14100
C449        C  0.00349475  0.50069165  0.14049057     0.48600
H450        H  0.00366336  0.50089202  0.12598326    -0.00500
C451        C  0.50524082  0.50214990  0.17391726     0.48600
H452        H  0.50442078  0.50131801  0.18834439    -0.00500
C453        C  0.46993938  0.93109248  0.14792976    -0.14100
C454        C  0.07103845  0.53845968  0.14798673    -0.13900
C455        C  0.46997732  0.53473729  0.14795861    -0.14300
C456        C  0.46634602  0.92757876  0.16578324    -0.14300
C457        C  0.07455799  0.53842383  0.16580973    -0.13800
C458        C  0.46816532  0.53648156  0.16581069    -0.14100
Zn459      Zn  0.16734604  0.83513960  0.99653912     1.49700
Zn460      Zn  0.23147753  0.81289139  0.96332589     1.49400
Zn461      Zn  0.08298868  0.77379993  0.96328702     1.49100
Zn462      Zn  0.19381462  0.92312556  0.96353875     1.49500
O463        O  0.16886882  0.83628550  0.97141067    -1.81000
O464        O  0.22115151  0.80463446  0.00645447    -0.71600
O465        O  0.19001959  0.74282832  0.94540134    -0.71500
O466        O  0.01910150  0.73618467  0.98354614    -0.71000
O467        O  0.26643443  0.78557570  0.98361498    -0.71700
O468        O  0.08266304  0.77991889  0.00646815    -0.71300
O469        O  0.08455559  0.70647212  0.94781404    -0.71800
O470        O  0.12594276  0.92298123  0.94817343    -0.71200
O471        O  0.30061189  0.88240550  0.94839718    -0.72000
O472        O  0.05599589  0.81724523  0.94564342    -0.71400
O473        O  0.26524354  0.95235483  0.94594016    -0.71800
O474        O  0.21959968  0.98466732  0.98408845    -0.71800
O475        O  0.19720057  0.91928730  0.00688466    -0.71500
C476        C  0.25699165  0.78533195  0.99998554     0.80200
C477        C  0.13228388  0.70704704  0.94029276     0.80700
C478        C  0.02765725  0.74424016  0.99996518     0.79700
C479        C  0.07881405  0.87544159  0.94059448     0.80100
C480        C  0.30082891  0.93002322  0.94089721     0.81200
C481        C  0.21802202  0.97497137  0.00047760     0.80300
Zn482      Zn  0.42195839  0.69883226  0.04836865     1.49700
Zn483      Zn  0.33375913  0.66815434  0.01529883     1.49400
Zn484      Zn  0.27748159  0.58096174  0.04870958     1.49100
Zn485      Zn  0.30565219  0.72699763  0.04852265     1.49500
O486        O  0.33454408  0.66862016  0.04047538    -1.81000
O487        O  0.48309015  0.72425175  0.02790998    -0.71600
O488        O  0.27744687  0.58364271  0.00524748    -0.71500
O489        O  0.32376712  0.55742721  0.06653596    -0.71000
O490        O  0.41765441  0.69653597  0.00510022    -0.71700
O491        O  0.42678775  0.63505053  0.06432953    -0.71300
O492        O  0.24255759  0.51813749  0.02825052    -0.71800
O493        O  0.23483782  0.68099324  0.06597565    -0.71200
O494        O  0.30607270  0.72450471  0.00526159    -0.72000
O495        O  0.20803560  0.57719777  0.06426129    -0.71400
O496        O  0.27919687  0.76271540  0.02822858    -0.71800
O497        O  0.37052960  0.79606121  0.06420930    -0.71800
O498        O  0.44815547  0.77078996  0.06551273    -0.71500
C499        C  0.47326891  0.71960567  0.01152902     0.80200
C500        C  0.24621402  0.52769370  0.01180818     0.80700
C501        C  0.38179144  0.58533951  0.07185017     0.79700
C502        C  0.20376836  0.62293903  0.07145277     0.80100
C503        C  0.28345276  0.75744114  0.01181147     0.81200
C504        C  0.42091288  0.80113676  0.07118124     0.80300
C505        C  0.45350157  0.88027442  0.13540734    -0.15400
C506        C  0.44853707  0.85773376  0.12107886     0.08700
C507        C  0.44656686  0.84517513  0.10305418     0.10500
C508        C  0.44070943  0.83253939  0.08774034    -0.16200
C509        C  0.39506630  0.56672114  0.08840099    -0.15400
C510        C  0.40488125  0.56134597  0.10353699     0.08700
C511        C  0.41872993  0.55884464  0.12130405     0.10500
C512        C  0.43714766  0.55274862  0.13538742    -0.16200
C513        C  0.17202918  0.61100829  0.08799983    -0.15400
C514        C  0.15864471  0.60355475  0.10327821     0.08700
C515        C  0.14505273  0.59178933  0.12123486     0.10500
C516        C  0.12189639  0.57325364  0.13548089    -0.16200
C517        C  0.43266510  0.56447783  0.17644044    -0.13300
C518        C  0.40998081  0.60465546  0.17056437    -0.28500
H519        H  0.42501280  0.54972556  0.18991821     0.15700
H520        H  0.41757084  0.61950384  0.15710536     0.16300
C521        C  0.39803015  0.80050878  0.17063966    -0.13300
C522        C  0.43677673  0.86382227  0.17655475    -0.28500
H523        H  0.38603008  0.79312308  0.15700980     0.15700
H524        H  0.44848804  0.87118099  0.19021291     0.16300
C525        C  0.13811510  0.57202208  0.17637786    -0.13300
C526        C  0.20064713  0.59293154  0.17044013    -0.28500
H527        H  0.13130330  0.57930479  0.18990061     0.15700
H528        H  0.20746679  0.58568313  0.15691157     0.16300
C529        C  0.23080419  0.95222413  0.54108210    -0.15400
C530        C  0.24275568  0.97549407  0.55541978     0.08700
C531        C  0.24910545  0.98900065  0.57339119     0.10500
C532        C  0.25873660  0.50114740  0.58842712    -0.16200
C533        C  0.50351136  0.74945716  0.58903032    -0.15400
C534        C  0.01471109  0.76021097  0.57375866     0.08700
C535        C  0.02856930  0.76613801  0.55576489     0.10500
C536        C  0.05163112  0.77614607  0.54136425    -0.16200
C537        C  0.22899429  0.77344988  0.54092545    -0.15400
C538        C  0.24111866  0.76260551  0.55527814     0.08700
C539        C  0.24890936  0.75756943  0.57326464     0.10500
C540        C  0.25639220  0.75190223  0.58850488    -0.16200
C541        C  0.26064217  0.53072982  0.50583614    -0.13300
C542        C  0.23869472  0.96911444  0.50001279    -0.28500
H543        H  0.25274533  0.53754832  0.51928245     0.15700
H544        H  0.24422628  0.96191966  0.48637967     0.16300
C545        C  0.47088364  0.72748073  0.50614933    -0.13300
C546        C  0.03475360  0.76843398  0.50031620    -0.28500
H547        H  0.46305461  0.71517863  0.51980068     0.15700
H548        H  0.04181691  0.78308365  0.48685112     0.16300
C549        C  0.27557995  0.74059354  0.50585642    -0.13300
C550        C  0.23652034  0.76449026  0.49985875    -0.28500
H551        H  0.28812530  0.74568687  0.51942760     0.15700
H552        H  0.22387169  0.75880403  0.48626192     0.16300
C553        C  0.33337092  0.95154249  0.92447707    -0.15400
C554        C  0.34738854  0.95683521  0.90924078     0.08700
C555        C  0.36084864  0.95640788  0.89133693     0.10500
C556        C  0.38326007  0.95880199  0.87710232    -0.16200
C557        C  0.05779006  0.88643021  0.92416644    -0.15400
C558        C  0.05105047  0.89397501  0.90896677     0.08700
C559        C  0.04851954  0.90604882  0.89107682     0.10500
C560        C  0.04369497  0.92462368  0.87688370    -0.16200
C561        C  0.12177184  0.67429131  0.92393958    -0.15400
C562        C  0.11289778  0.65846048  0.90884017     0.08700
C563        C  0.09794823  0.64202216  0.89111884     0.10500
C564        C  0.07662039  0.61794643  0.87714003    -0.16200
C565        C  0.28760443  0.89347437  0.80077706    -0.15400
C566        C  0.31024971  0.90463901  0.78630139     0.08700
C567        C  0.32284801  0.91096676  0.76820882     0.10500
C568        C  0.33554804  0.91740416  0.75287434    -0.16200
C569        C  0.08864003  0.92321035  0.75329179    -0.15400
C570        C  0.09463711  0.91484394  0.76846335     0.08700
C571        C  0.09956227  0.90571338  0.78639785     0.10500
C572        C  0.10956841  0.89254363  0.80073560    -0.16200
C573        C  0.08621421  0.67057625  0.75249630    -0.15400
C574        C  0.09301212  0.68230543  0.76787231     0.08700
C575        C  0.09928266  0.69313787  0.78604418     0.10500
C576        C  0.11030949  0.71449242  0.80064317    -0.16200
C577        C  0.06172224  0.92528852  0.83587442    -0.13300
C578        C  0.09982226  0.90027953  0.84188981    -0.28500
H579        H  0.05099525  0.92214283  0.82219538     0.15700
H580        H  0.11089400  0.90417919  0.85557137     0.16300
C581        C  0.36627138  0.94089715  0.83612622    -0.13300
C582        C  0.30321348  0.90102747  0.84206211    -0.28500
H583        H  0.37400136  0.95388483  0.82254832     0.15700
H584        H  0.29595403  0.88790850  0.85566194     0.16300
C585        C  0.07626078  0.63481682  0.83620855    -0.13300
C586        C  0.09919463  0.69788214  0.84202017    -0.28500
H587        H  0.08302045  0.62721371  0.82272117     0.15700
H588        H  0.09157784  0.70492069  0.85550785     0.16300
C589        C  0.38180511  0.78196287  0.21189252    -0.15400
C590        C  0.38582017  0.80214594  0.22647397     0.08700
C591        C  0.38601561  0.81314528  0.24453800     0.10500
C592        C  0.39065239  0.82822834  0.25965409    -0.16200
C593        C  0.45101122  0.61199706  0.25881823    -0.15400
C594        C  0.43997308  0.61613659  0.24372240     0.08700
C595        C  0.42630757  0.61588726  0.22583938     0.10500
C596        C  0.40742199  0.61916100  0.21156645    -0.16200
C597        C  0.21639380  0.59225292  0.21140840    -0.15400
C598        C  0.19389488  0.57438921  0.22574219     0.08700
C599        C  0.18052916  0.56207907  0.24368752     0.10500
C600        C  0.16502534  0.55186081  0.25879781    -0.16200
C601        C  0.22405631  0.99558647  0.41805469    -0.15400
C602        C  0.22771654  0.50958444  0.43316486     0.08700
C603        C  0.24282244  0.52512056  0.45088746     0.10500
C604        C  0.26261402  0.54847214  0.46500087    -0.16200
C605        C  0.00737685  0.71808574  0.41852597    -0.15400
C606        C  0.49210781  0.71411817  0.43335367     0.08700
C607        C  0.47781313  0.71300975  0.45118287     0.10500
C608        C  0.45481670  0.70948451  0.46535238    -0.16200
C609        C  0.29320092  0.74024114  0.46503426    -0.15400
C610        C  0.28895498  0.75939200  0.45090102     0.08700
C611        C  0.28749913  0.77341794  0.43315509     0.10500
C612        C  0.28174192  0.78466236  0.41821198    -0.16200
Zn613      Zn  0.71186955  0.42400462  0.36554835     1.49700
Zn614      Zn  0.57794016  0.28634666  0.36572279     1.49400
Zn615      Zn  0.71395690  0.28923471  0.36537921     1.49100
Zn616      Zn  0.66996244  0.33463021  0.39455419     1.49500
O617        O  0.66805067  0.33350576  0.37069883    -1.81000
O618        O  0.65238702  0.43796103  0.35028855    -0.71600
O619        O  0.56330094  0.21304102  0.35006694    -0.71500
O620        O  0.78763195  0.34871226  0.35006310    -0.71000
O621        O  0.55882809  0.34385058  0.35070053    -0.71700
O622        O  0.78735843  0.44239823  0.35026809    -0.71300
O623        O  0.65695945  0.21356129  0.35003270    -0.71800
O624        O  0.75257588  0.34854443  0.40294132    -0.71200
O625        O  0.52556145  0.25605134  0.38879352    -0.72000
O626        O  0.74283589  0.26463219  0.38818091    -0.71400
O627        O  0.60218455  0.25305950  0.40412385    -0.71800
O628        O  0.65776594  0.40333129  0.40412503    -0.71800
O629        O  0.73724722  0.47862279  0.38827446    -0.71500
C630        C  0.59450729  0.40164629  0.34510500     0.80200
C631        C  0.59944106  0.19169307  0.34455090     0.80700
C632        C  0.80933838  0.40670503  0.34476858     0.79700
C633        C  0.75963475  0.29968916  0.40186976     0.80100
C634        C  0.54498248  0.24193140  0.40271891     0.81200
C635        C  0.70452745  0.46035901  0.40240346     0.80300
Zn636      Zn  0.59049499  0.04263194  0.31060371     1.49700
Zn637      Zn  0.50303406  0.50307695  0.28245586     1.49400
Zn638      Zn  0.95512678  0.41055193  0.31081275     1.49100
Zn639      Zn  0.95842677  0.04595200  0.31064784     1.49500
O640        O  0.50136481  0.50150746  0.30631888    -1.81000
O641        O  0.64293027  0.06690670  0.28758409    -0.71600
O642        O  0.92076495  0.43723741  0.27315937    -0.71500
O643        O  0.51134629  0.39184920  0.32657979    -0.71000
O644        O  0.56919772  0.98157831  0.27320758    -0.71700
O645        O  0.60533318  0.48545057  0.32678873    -0.71300
O646        O  0.92705693  0.36017376  0.28745805    -0.71800
O647        O  0.88462340  0.49129080  0.32681139    -0.71200
O648        O  0.01004764  0.07499181  0.27147865    -0.72000
O649        O  0.88107226  0.39578578  0.32604140    -0.71400
O650        O  0.93519071  0.07699863  0.28800721    -0.71800
O651        O  0.51658118  0.11978879  0.32585151    -0.71800
O652        O  0.60929571  0.11845721  0.32587420    -0.71500
C653        C  0.62465010  0.03130130  0.27399715     0.80200
C654        C  0.91208165  0.38052421  0.27384798     0.80700
C655        C  0.56891945  0.42747613  0.33210917     0.79700
C656        C  0.86093994  0.43267229  0.33180985     0.80100
C657        C  0.96614790  0.08896026  0.27363264     0.81200
C658        C  0.57391269  0.14076486  0.33135188     0.80300
C659        C  0.66588017  0.33590052  0.80614822     0.48600
H660        H  0.66577382  0.33601673  0.79163276    -0.00500
C661        C  0.66596743  0.33568759  0.83958750     0.48600
H662        H  0.66601571  0.33558748  0.85401527    -0.00500
C663        C  0.73365333  0.37073678  0.81348222    -0.14100
C664        C  0.63124083  0.36881396  0.81372913    -0.13900
C665        C  0.63261062  0.26787361  0.81359857    -0.14300
C666        C  0.73742028  0.37264166  0.83133509    -0.14300
C667        C  0.62917615  0.37045756  0.83155441    -0.13800
C668        C  0.63111778  0.26399381  0.83145252    -0.14100
C669        C  0.99866298  0.50020488  0.83878702     0.48600
H670        H  0.99935564  0.50020649  0.82435887    -0.00500
C671        C  0.99984897  0.99866786  0.87182509     0.48600
H672        H  0.50081004  0.00082357  0.88647063    -0.00500
C673        C  0.54049902  0.07311658  0.84669797    -0.14700
C674        C  0.92727589  0.47021948  0.84675226    -0.13900
C675        C  0.52906021  0.46080943  0.84669061    -0.14300
C676        C  0.54025648  0.06900794  0.86452610    -0.14300
C677        C  0.93032923  0.47409510  0.86457477    -0.13800
C678        C  0.52483982  0.46078600  0.86451036    -0.14100
C679        C  0.66678051  0.33455079  0.53587787     0.48600
H680        H  0.66627788  0.33415410  0.55039193    -0.00500
C681        C  0.66760512  0.33530146  0.50242464     0.48600
H682        H  0.66793000  0.33556476  0.48799957    -0.00500
C683        C  0.70143204  0.40263796  0.52847882    -0.14100
C684        C  0.70012347  0.30023408  0.52840170    -0.13900
C685        C  0.59940224  0.30145460  0.52833508    -0.14300
C686        C  0.70356193  0.40682042  0.51063790    -0.14300
C687        C  0.70264125  0.29900968  0.51056996    -0.13800
C688        C  0.59604577  0.29962364  0.51053295    -0.14100
C689        C  0.83284902  0.16858323  0.46991438     0.48600
H690        H  0.83277045  0.16865582  0.45540001    -0.00500
C691        C  0.83321503  0.16844168  0.50336494     0.48600
H692        H  0.83335333  0.16840398  0.51779201    -0.00500
C693        C  0.79526934  0.10083249  0.47743194    -0.14100
C694        C  0.90038586  0.19858991  0.47728478    -0.13900
C695        C  0.80303750  0.20613457  0.47747180    -0.14300
C696        C  0.79468690  0.09693026  0.49524503    -0.14300
C697        C  0.90439305  0.20135983  0.49508075    -0.13800
C698        C  0.80036448  0.20697672  0.49529198    -0.14100
Zn699      Zn  0.88093938  0.12525921  0.62790043     1.49700
Zn700      Zn  0.74648747  0.12217619  0.62768272     1.49400
Zn701      Zn  0.83461040  0.16758039  0.66075733     1.49100
Zn702      Zn  0.87728944  0.25761053  0.62798218     1.49500
O703        O  0.83487363  0.16819969  0.63569350    -1.81000
O704        O  0.82673675  0.05321966  0.61152061    -0.71600
O705        O  0.68445082  0.09245214  0.64808165    -0.71500
O706        O  0.87181722  0.12082632  0.67095910    -0.71000
O707        O  0.73268471  0.05116301  0.61129465    -0.71700
O708        O  0.91248925  0.09501479  0.64837380    -0.71300
O709        O  0.75042143  0.13004001  0.67076342    -0.71800
O710        O  0.90918450  0.31849317  0.64868419    -0.71200
O711        O  0.73072996  0.17672605  0.61098764    -0.72000
O712        O  0.88081818  0.25144844  0.67126462    -0.71400
O713        O  0.82055985  0.27315129  0.61181039    -0.71800
O714        O  0.94737826  0.27391903  0.61104695    -0.71800
O715        O  0.95062876  0.18214568  0.61113847    -0.71500
C716        C  0.77120956  0.03409334  0.60513883     0.80200
C717        C  0.69458210  0.10077136  0.66442855     0.80700
C718        C  0.90312919  0.09612691  0.66471109     0.79700
C719        C  0.90703005  0.30777322  0.66503160     0.80100
C720        C  0.76623799  0.23371588  0.60514234     0.81200
C721        C  0.96662405  0.23731413  0.60472651     0.80300
Zn722      Zn  0.58985054  0.05416566  0.71342785     1.49700
Zn723      Zn  0.50110896  0.00379254  0.68040477     1.49400
Zn724      Zn  0.96161855  0.41427526  0.71390016     1.49100
Zn725      Zn  0.95217006  0.04173199  0.71386337     1.49500
O726        O  0.50111749  0.00479664  0.70554006    -1.81000
O727        O  0.65131953  0.08405540  0.69284813    -0.71600
O728        O  0.96016184  0.41732729  0.67075392    -0.71500
O729        O  0.51141725  0.39183893  0.72987640    -0.71000
O730        O  0.58524774  0.04519372  0.67021504    -0.71700
O731        O  0.60055824  0.48880020  0.73138534    -0.71300
O732        O  0.93144753  0.35120592  0.69354062    -0.71800
O733        O  0.88658252  0.48904923  0.73010156    -0.71200
O734        O  0.95897436  0.04267817  0.67064455    -0.72000
O735        O  0.89011981  0.39752025  0.73061076    -0.71400
O736        O  0.92194118  0.07251774  0.69323244    -0.71800
O737        O  0.50474027  0.11489157  0.73058638    -0.71800
O738        O  0.60285857  0.12630603  0.72938996    -0.71500
C739        C  0.64110459  0.07564819  0.67650338     0.80200
C740        C  0.93441042  0.36129581  0.67714295     0.80700
C741        C  0.56498289  0.43126732  0.73688426     0.79700
C742        C  0.87001601  0.43390107  0.73662456     0.80100
C743        C  0.92917770  0.06901549  0.67686996     0.81200
C744        C  0.56175953  0.13826896  0.73637147     0.80300
C745        C  0.83021373  0.16721900  0.20626571     0.48600
H746        H  0.82946842  0.16729706  0.22077578    -0.00500
C747        C  0.83185228  0.16701968  0.17279622     0.48600
H748        H  0.83261146  0.16701390  0.15836959    -0.00500
C749        C  0.76300721  0.13023136  0.19859256    -0.14100
C750        C  0.86171781  0.23504524  0.19872050    -0.13900
C751        C  0.86732451  0.13628906  0.19900664    -0.14300
C752        C  0.76004736  0.12949206  0.18077126    -0.14300
C753        C  0.86578592  0.23862349  0.18089587    -0.13800
C754        C  0.86886292  0.13311979  0.18117761    -0.14100
C755        C  0.49940776  0.99879178  0.14029564     0.48600
H756        H  0.49967313  0.99860083  0.12578641    -0.00500
C757        C  0.00018717  0.00238380  0.17418289     0.48600
H758        H  0.00026668  0.00223645  0.18861153    -0.00500
C759        C  0.97349406  0.43272547  0.14793005    -0.14100
C760        C  0.56685097  0.03765862  0.14773924    -0.13900
C761        C  0.96120816  0.03146234  0.14829391    -0.14300
C762        C  0.96982877  0.42881228  0.16575605    -0.14300
C763        C  0.57031097  0.03829636  0.16556819    -0.13800
C764        C  0.96106415  0.03481033  0.16614067    -0.14100
Zn765      Zn  0.66855720  0.33244513  0.99605628     1.49700
Zn766      Zn  0.73265953  0.31269730  0.96281847     1.49400
Zn767      Zn  0.58310946  0.26834216  0.96295860     1.49100
Zn768      Zn  0.68736623  0.41864116  0.96338351     1.49500
O769        O  0.66814572  0.33305295  0.97100084    -1.81000
O770        O  0.72175125  0.30151803  0.00592798    -0.71600
O771        O  0.69177283  0.24196770  0.94498462    -0.71500
O772        O  0.52000944  0.23435514  0.98334109    -0.71000
O773        O  0.77046668  0.28700288  0.98314474    -0.71700
O774        O  0.58442755  0.27958087  0.00606804    -0.71300
O775        O  0.58567537  0.19889020  0.94865810    -0.71800
O776        O  0.61688659  0.41502260  0.94822227    -0.71200
O777        O  0.79826430  0.38430517  0.94756011    -0.72000
O778        O  0.55512282  0.30851927  0.94449217    -0.71400
O779        O  0.75802335  0.45052335  0.94559022    -0.71800
O780        O  0.71267416  0.48051239  0.98399077    -0.71800
O781        O  0.69944275  0.41631402  0.00645004    -0.71500
C782        C  0.75972426  0.28488806  0.99951697     0.80200
C783        C  0.63390315  0.20273034  0.94053160     0.80700
C784        C  0.52917596  0.24433179  0.99969267     0.79700
C785        C  0.57360069  0.36646220  0.93993915     0.80100
C786        C  0.79545376  0.43076495  0.94027556     0.81200
C787        C  0.71559099  0.47130188  0.00026473     0.80300
Zn788      Zn  0.91838058  0.18864340  0.04904899     1.49700
Zn789      Zn  0.83414986  0.16652018  0.01570542     1.49400
Zn790      Zn  0.76993199  0.07980409  0.04899832     1.49100
Zn791      Zn  0.80973477  0.22900431  0.04857723     1.49500
O792        O  0.83294270  0.16592301  0.04084300    -1.81000
O793        O  0.98223124  0.21681735  0.02878219    -0.71600
O794        O  0.77882732  0.08262017  0.00573980    -0.71500
O795        O  0.81105178  0.05163836  0.06715671    -0.71000
O796        O  0.91809717  0.19435760  0.00587202    -0.71700
O797        O  0.91682864  0.11884828  0.06417805    -0.71300
O798        O  0.73437132  0.01741840  0.02854325    -0.71800
O799        O  0.73897273  0.18729497  0.06642626    -0.71200
O800        O  0.80715492  0.22258179  0.00509476    -0.72000
O801        O  0.70174612  0.08129028  0.06405528    -0.71400
O802        O  0.78442566  0.26509135  0.02787556    -0.71800
O803        O  0.87850622  0.29702760  0.06385793    -0.71800
O804        O  0.94487799  0.25775620  0.06712531    -0.71500
C805        C  0.97324586  0.21512191  0.01236018     0.80200
C806        C  0.74308631  0.02714124  0.01214880     0.80700
C807        C  0.86883558  0.07312414  0.07212162     0.79700
C808        C  0.70288632  0.12933721  0.07159554     0.80100
C809        C  0.78672288  0.25763709  0.01146070     0.81200
C810        C  0.92358595  0.29454970  0.07190707     0.80300
C811        C  0.95763580  0.38187641  0.13543208    -0.15400
C812        C  0.95272726  0.35738231  0.12138059     0.08700
C813        C  0.95030415  0.34121989  0.10359720     0.10500
C814        C  0.94394035  0.32622554  0.08843693    -0.16200
C815        C  0.87934945  0.05276391  0.08878976    -0.15400
C816        C  0.88837117  0.04764198  0.10401602     0.08700
C817        C  0.90336206  0.04758161  0.12182214     0.10500
C818        C  0.92437442  0.04498622  0.13586738    -0.16200
C819        C  0.67089957  0.11890789  0.08810832    -0.15400
C820        C  0.65615707  0.11016727  0.10331491     0.08700
C821        C  0.64090537  0.09552009  0.12114538     0.10500
C822        C  0.61730730  0.07460169  0.13524664    -0.16200
C823        C  0.92610358  0.06356810  0.17676681    -0.13300
C824        C  0.90383707  0.10399158  0.17075462    -0.28500
H825        H  0.91911906  0.04984664  0.19032610     0.15700
H826        H  0.91125350  0.11796373  0.15721979     0.16300
C827        C  0.89695179  0.30251741  0.17031478    -0.13300
C828        C  0.93951491  0.36481869  0.17626800    -0.28500
H829        H  0.88267106  0.29629419  0.15683202     0.15700
H830        H  0.95394529  0.37111320  0.18973471     0.16300
C831        C  0.63390585  0.07381190  0.17606401    -0.13300
C832        C  0.69653073  0.09474189  0.17016968    -0.28500
H833        H  0.62703882  0.08241389  0.18947586     0.15700
H834        H  0.70322965  0.08614612  0.15673337     0.16300
C835        C  0.72797280  0.45333132  0.54127134    -0.15400
C836        C  0.73873603  0.47538356  0.55576000     0.08700
C837        C  0.74370367  0.48741958  0.57382333     0.10500
C838        C  0.75636847  0.00202341  0.58866317    -0.16200
C839        C  0.99784818  0.25375042  0.58811351    -0.15400
C840        C  0.51031560  0.26603820  0.57302022     0.08700
C841        C  0.52422447  0.27054871  0.55510721     0.10500
C842        C  0.54808843  0.27961488  0.54086521    -0.16200
C843        C  0.72312129  0.27230721  0.54107890    -0.15400
C844        C  0.73414124  0.26047532  0.55546989     0.08700
C845        C  0.74165872  0.25501058  0.57348485     0.10500
C846        C  0.74948301  0.24953591  0.58873453    -0.16200
C847        C  0.76066853  0.03309475  0.50584837    -0.13300
C848        C  0.73772886  0.47085576  0.50005656    -0.28500
H849        H  0.75596370  0.04065313  0.51947052     0.15700
H850        H  0.74319891  0.46376166  0.48644217     0.16300
C851        C  0.96804132  0.22959825  0.50551910    -0.13300
C852        C  0.53245536  0.27031668  0.50002268    -0.28500
H853        H  0.96023792  0.21643523  0.51907334     0.15700
H854        H  0.53948948  0.28497475  0.48656258     0.16300
C855        C  0.77193753  0.24199629  0.50589825    -0.13300
C856        C  0.73203565  0.26482734  0.49997296    -0.28500
H857        H  0.78586195  0.24861886  0.51936906     0.15700
H858        H  0.71801438  0.25783880  0.48649579     0.16300
C859        C  0.82710196  0.45407719  0.92382907    -0.15400
C860        C  0.84142297  0.46061123  0.90861568     0.08700
C861        C  0.85632979  0.46079938  0.89081961     0.10500
C862        C  0.88001857  0.46253489  0.87683321    -0.16200
C863        C  0.55188389  0.37712468  0.92352402    -0.15400
C864        C  0.54464359  0.38667631  0.90849185     0.08700
C865        C  0.54213378  0.40251242  0.89087736     0.10500
C866        C  0.53831219  0.42397215  0.87699862    -0.16200
C867        C  0.62310187  0.17013610  0.92414470    -0.15400
C868        C  0.61380511  0.15553826  0.90896589     0.08700
C869        C  0.59871451  0.14142233  0.89115071     0.10500
C870        C  0.57756686  0.11893502  0.87702347    -0.16200
C871        C  0.78453288  0.39513793  0.80063816    -0.15400
C872        C  0.80770085  0.40550176  0.78622062     0.08700
C873        C  0.82206613  0.41103401  0.76822451     0.10500
C874        C  0.83666831  0.41724825  0.75301493    -0.16200
C875        C  0.58030477  0.41465865  0.75333524    -0.15400
C876        C  0.58675146  0.40905067  0.76863999     0.08700
C877        C  0.59368421  0.40454442  0.78669005     0.10500
C878        C  0.60575558  0.39430220  0.80111079    -0.16200
C879        C  0.57634680  0.16952816  0.75301109    -0.15400
C880        C  0.58300184  0.18204866  0.76833466     0.08700
C881        C  0.59088691  0.19447713  0.78640547     0.10500
C882        C  0.60429747  0.21691373  0.80085562    -0.16200
C883        C  0.55823336  0.42612993  0.83619289    -0.13300
C884        C  0.59824233  0.40339344  0.84217600    -0.28500
H885        H  0.54525941  0.42041163  0.82264610     0.15700
H886        H  0.61132319  0.40983499  0.85575103     0.16300
C887        C  0.86419774  0.44187287  0.83601111    -0.13300
C888        C  0.80095432  0.40323609  0.84195494    -0.28500
H889        H  0.87229377  0.45362953  0.82236000     0.15700
H890        H  0.79343098  0.39095418  0.85559827     0.16300
C891        C  0.57527541  0.13704439  0.83612036    -0.13300
C892        C  0.59794412  0.19998334  0.84209142    -0.28500
H893        H  0.58111989  0.12988131  0.82253909     0.15700
H894        H  0.59153820  0.20665024  0.85569553     0.16300
C895        C  0.87983647  0.28636054  0.21118250    -0.15400
C896        C  0.88607461  0.31114877  0.22523685     0.08700
C897        C  0.88858795  0.32783934  0.24295885     0.10500
C898        C  0.89387026  0.34446954  0.25795650    -0.16200
C899        C  0.94759787  0.11046479  0.25849425    -0.15400
C900        C  0.93523855  0.11616757  0.24364317     0.08700
C901        C  0.92018395  0.11665453  0.22591923     0.10500
C902        C  0.90109124  0.12025798  0.21171609    -0.16200
C903        C  0.71190389  0.09538194  0.21097258    -0.15400
C904        C  0.68899077  0.07608579  0.22517634     0.08700
C905        C  0.67568494  0.06216574  0.24303543     0.10500
C906        C  0.66089227  0.05072676  0.25814649    -0.16200
C907        C  0.72381086  0.49945103  0.41776390    -0.15400
C908        C  0.73365744  0.01680181  0.43250569     0.08700
C909        C  0.74489551  0.02893980  0.45046334     0.10500
C910        C  0.76186885  0.05040572  0.46486061    -0.16200
C911        C  0.50691792  0.22186236  0.41825860    -0.15400
C912        C  0.98483905  0.21614621  0.43248971     0.08700
C913        C  0.97223327  0.21762451  0.45034444     0.10500
C914        C  0.95048549  0.21461186  0.46465850    -0.16200
C915        C  0.78596515  0.23963028  0.46492949    -0.15400
C916        C  0.78144556  0.25727081  0.45060257     0.08700
C917        C  0.78128154  0.26974910  0.43267376     0.10500
C918        C  0.77735603  0.28052576  0.41755822    -0.16200
Zn919      Zn  0.71259676  0.92553123  0.36543970     1.49700
Zn920      Zn  0.57935815  0.78875284  0.36618283     1.49400
Zn921      Zn  0.71502867  0.79084566  0.36562979     1.49100
Zn922      Zn  0.67217233  0.83552729  0.39473031     1.49500
O923        O  0.66961793  0.83539010  0.37094918    -1.81000
O924        O  0.65317502  0.93905327  0.35014841    -0.71600
O925        O  0.56409487  0.71554487  0.35064746    -0.71500
O926        O  0.78721797  0.84962251  0.34998049    -0.71000
O927        O  0.55944699  0.84536199  0.35116043    -0.71700
O928        O  0.78723219  0.94348502  0.34991988    -0.71300
O929        O  0.65742978  0.71540611  0.35056118    -0.71800
O930        O  0.75443815  0.84864619  0.40330039    -0.71200
O931        O  0.52718688  0.75779660  0.38916016    -0.72000
O932        O  0.74509313  0.76568733  0.38818751    -0.71400
O933        O  0.60398682  0.75384929  0.40414795    -0.71800
O934        O  0.66019742  0.90406412  0.40425262    -0.71800
O935        O  0.73741126  0.98050807  0.38799961    -0.71500
C936        C  0.59508624  0.90257577  0.34520941     0.80200
C937        C  0.59988375  0.69378627  0.34518044     0.80700
C938        C  0.80854973  0.90722487  0.34443081     0.79700
C939        C  0.76211034  0.80022035  0.40197039     0.80100
C940        C  0.54669269  0.74255270  0.40286512     0.81200
C941        C  0.70539469  0.96172668  0.40223390     0.80300
Zn942      Zn  0.59134449  0.54504579  0.31150071     1.49700
Zn943      Zn  0.49969200  0.99453214  0.28166711     1.49400
Zn944      Zn  0.95404680  0.90788216  0.31133175     1.49100
Zn945      Zn  0.96036300  0.54838952  0.31159849     1.49500
O946        O  0.50037079  0.99837086  0.30551455    -1.81000
O947        O  0.64585183  0.57107080  0.28875482    -0.71600
O948        O  0.91556673  0.92552178  0.27384411    -0.71500
O949        O  0.51110067  0.89137581  0.32697212    -0.71000
O950        O  0.57148405  0.48972598  0.27339325    -0.71700
O951        O  0.60563207  0.98423811  0.32607733    -0.71300
O952        O  0.92634131  0.85258131  0.28880061    -0.71800
O953        O  0.88222172  0.98986665  0.32575110    -0.71200
O954        O  0.01918308  0.58774906  0.27399924    -0.72000
O955        O  0.88007592  0.89496778  0.32610957    -0.71400
O956        O  0.93574760  0.57801277  0.28887143    -0.71800
O957        O  0.51657655  0.62169620  0.32673920    -0.71800
O958        O  0.60929560  0.62015339  0.32675225    -0.71500
C959        C  0.62783080  0.53762566  0.27478865     0.80200
C960        C  0.90927189  0.86993277  0.27502757     0.80700
C961        C  0.56915805  0.92723576  0.33203781     0.79700
C962        C  0.85936721  0.93202836  0.33130908     0.80100
C963        C  0.97039684  0.59468869  0.27507112     0.81200
C964        C  0.57399110  0.64262384  0.33215846     0.80300
C965        C  0.66811194  0.83550399  0.80596572     0.48600
H966        H  0.66844159  0.83559948  0.79145157    -0.00500
C967        C  0.66734693  0.83510222  0.83941350     0.48600
H968        H  0.66700088  0.83496342  0.85384142    -0.00500
C969        C  0.73561018  0.86818337  0.81348287    -0.14100
C970        C  0.63534352  0.87055945  0.81336447    -0.13900
C971        C  0.63275102  0.76748804  0.81344928    -0.14300
C972        C  0.73902279  0.87029630  0.83130920    -0.14300
C973        C  0.63248241  0.87163608  0.83121108    -0.13800
C974        C  0.63098415  0.76345338  0.83128144    -0.14100
C975        C  0.00040940  0.99913863  0.83835699     0.48600
H976        H  0.00063391  0.99938630  0.82392857    -0.00500
C977        C  0.99719582  0.50033929  0.87226348     0.48600
H978        H  0.49602088  0.50015925  0.88638644    -0.00500
C979        C  0.53734646  0.57208479  0.84654019    -0.14700
C980        C  0.92906568  0.96731417  0.84649215    -0.13900
C981        C  0.53281429  0.96220221  0.84651675    -0.14300
C982        C  0.53630275  0.56810732  0.86437249    -0.14300
C983        C  0.93253635  0.97043107  0.86430641    -0.13800
C984        C  0.52914945  0.96208882  0.86433859    -0.14100
C985        C  0.66889541  0.83464353  0.53593186     0.48600
H986        H  0.66874353  0.83482600  0.55044887    -0.00500
C987        C  0.66913220  0.83434789  0.50249287     0.48600
H988        H  0.66923707  0.83423073  0.48806214    -0.00500
C989        C  0.70262542  0.90247909  0.52837608    -0.14100
C990        C  0.70294331  0.80085838  0.52854346    -0.13900
C991        C  0.60130394  0.80013714  0.52849863    -0.14300
C992        C  0.70415152  0.90610260  0.51054453    -0.14300
C993        C  0.70542684  0.79928500  0.51068906    -0.13800
C994        C  0.59762504  0.79780422  0.51067892    -0.14100
C995        C  0.83841389  0.66999720  0.47029410     0.48600
H996        H  0.83921234  0.67033023  0.45578258    -0.00500
C997        C  0.83684015  0.66922491  0.50374959     0.48600
H998        H  0.83618450  0.66886974  0.51817561    -0.00500
C999        C  0.79919467  0.60215030  0.47768278    -0.14100
C1000       C  0.90537904  0.69835654  0.47794332    -0.13900
C1001       C  0.80933867  0.70858739  0.47768481    -0.14300
C1002       C  0.79766858  0.59792533  0.49551695    -0.14300
C1003       C  0.90843693  0.70118805  0.49574735    -0.13800
C1004       C  0.80530923  0.70879594  0.49551811    -0.14100
Zn1005     Zn  0.87767651  0.62291048  0.62796303     1.49700
Zn1006     Zn  0.74348660  0.62116472  0.62869824     1.49400
Zn1007     Zn  0.83345531  0.66622928  0.66127988     1.49100
Zn1008     Zn  0.87648062  0.75578812  0.62821954     1.49500
O1009       O  0.83279769  0.66659303  0.63615934    -1.81000
O1010       O  0.82185876  0.55189043  0.61150727    -0.71600
O1011       O  0.68317323  0.58999808  0.64953840    -0.71500
O1012       O  0.87448582  0.62287138  0.67107796    -0.71000
O1013       O  0.72789565  0.55004005  0.61206853    -0.71700
O1014       O  0.90935065  0.59201051  0.64822259    -0.71300
O1015       O  0.74988829  0.62542490  0.67207368    -0.71800
O1016       O  0.90750028  0.81724292  0.64882313    -0.71200
O1017       O  0.72623945  0.67627415  0.61238756    -0.72000
O1018       O  0.87822836  0.75045797  0.67149273    -0.71400
O1019       O  0.81981493  0.76946722  0.61161955    -0.71800
O1020       O  0.94834609  0.77284918  0.61170116    -0.71800
O1021       O  0.94844504  0.67955833  0.61135641    -0.71500
C1022       C  0.76576108  0.53278584  0.60552985     0.80200
C1023       C  0.69378533  0.59629925  0.66589531     0.80700
C1024       C  0.90353524  0.59615031  0.66462546     0.79700
C1025       C  0.90484556  0.80668994  0.66518793     0.80100
C1026       C  0.76362406  0.73156386  0.60572568     0.81200
C1027       C  0.96685759  0.73575381  0.60529851     0.80300
Zn1028     Zn  0.58624083  0.54424284  0.71463997     1.49700
Zn1029     Zn  0.50012422  0.50033293  0.68150190     1.49400
Zn1030     Zn  0.95985546  0.91198315  0.71404639     1.49100
Zn1031     Zn  0.95771474  0.54602688  0.71362619     1.49500
O1032       O  0.49794144  0.49783610  0.70649057    -1.81000
O1033       O  0.64998580  0.57556579  0.69442845    -0.71600
O1034       O  0.95880592  0.91635078  0.67097367    -0.71500
O1035       O  0.51933830  0.90447676  0.73013891    -0.71000
O1036       O  0.58455606  0.54131519  0.67164275    -0.71700
O1037       O  0.60780129  0.00209375  0.73063347    -0.71300
O1038       O  0.92908963  0.84975379  0.69365806    -0.71800
O1039       O  0.88019204  0.98288728  0.72991787    -0.71200
O1040       O  0.95990546  0.54312207  0.67026694    -0.72000
O1041       O  0.88882806  0.89416889  0.73076344    -0.71400
O1042       O  0.92607685  0.57555498  0.69303988    -0.71800
O1043       O  0.50296808  0.60948453  0.73109348    -0.71800
O1044       O  0.59888472  0.61537296  0.73089527    -0.71500
C1045       C  0.64028108  0.56973460  0.67803123     0.80200
C1046       C  0.93241271  0.86016769  0.67728762     0.80700
C1047       C  0.57332051  0.94524743  0.73673450     0.79700
C1048       C  0.86618908  0.92857455  0.73657269     0.80100
C1049       C  0.93110660  0.57025065  0.67664398     0.81200
C1050       C  0.55933866  0.63094515  0.73716698     0.80300
C1051       C  0.83800774  0.66804503  0.20672240     0.48600
H1052       H  0.83786878  0.66807921  0.22123652    -0.00500
C1053       C  0.83820513  0.66804556  0.17327626     0.48600
H1054       H  0.83826416  0.66801660  0.15884884    -0.00500
C1055       C  0.77041028  0.63099010  0.19929635    -0.14100
C1056       C  0.86869580  0.73588571  0.19918651    -0.13900
C1057       C  0.87494744  0.63727167  0.19927844    -0.14300
C1058       C  0.76677929  0.63018669  0.18146009    -0.14300
C1059       C  0.87164185  0.73973171  0.18135655    -0.13800
C1060       C  0.87578898  0.63423202  0.18142635    -0.14100
C1061       C  0.50699049  0.50412350  0.14046350     0.48600
H1062       H  0.50775061  0.50500182  0.12595369    -0.00500
C1063       C  0.00314961  0.50018390  0.17396589     0.48600
H1064       H  0.00297869  0.49986934  0.18839475    -0.00500
C1065       C  0.97070109  0.93476257  0.14816806    -0.14100
C1066       C  0.57424166  0.54050392  0.14815334    -0.13900
C1067       C  0.96563568  0.53044598  0.14805391    -0.14300
C1068       C  0.96776210  0.93082096  0.16602353    -0.14300
C1069       C  0.57709777  0.54019513  0.16598547    -0.13800
C1070       C  0.96524151  0.53367142  0.16591137    -0.14100
Zn1071     Zn  0.66724132  0.83375979  0.99619846     1.49700
Zn1072     Zn  0.72839198  0.80977901  0.96299012     1.49400
Zn1073     Zn  0.58110718  0.77424711  0.96308125     1.49100
Zn1074     Zn  0.69211336  0.92164987  0.96325400     1.49500
O1075       O  0.66741439  0.83497174  0.97113670    -1.81000
O1076       O  0.72218595  0.80448586  0.00618374    -0.71600
O1077       O  0.68443262  0.74026888  0.94503866    -0.71500
O1078       O  0.51812849  0.73989435  0.98323154    -0.71000
O1079       O  0.76366748  0.78144190  0.98322864    -0.71700
O1080       O  0.58302623  0.77852739  0.00611133    -0.71300
O1081       O  0.57928646  0.70424923  0.94827639    -0.71800
O1082       O  0.62421992  0.92308639  0.94821580    -0.71200
O1083       O  0.79728886  0.87881213  0.94790116    -0.72000
O1084       O  0.55527291  0.81751930  0.94517571    -0.71400
O1085       O  0.76213789  0.94902228  0.94538201    -0.71800
O1086       O  0.71869340  0.98321597  0.98377811    -0.71800
O1087       O  0.69534721  0.91736416  0.00650883    -0.71500
C1088       C  0.75637247  0.78329235  0.99966337     0.80200
C1089       C  0.62615266  0.70468480  0.94032039     0.80700
C1090       C  0.52750633  0.74602193  0.99962223     0.79700
C1091       C  0.57778002  0.87585980  0.94036607     0.80100
C1092       C  0.79721260  0.92614615  0.94029777     0.81200
C1093       C  0.71621208  0.97310441  0.00016290     0.80300
Zn1094     Zn  0.92019778  0.69478908  0.04888865     1.49700
Zn1095     Zn  0.83306713  0.66592617  0.01553693     1.49400
Zn1096     Zn  0.77426475  0.57893323  0.04895003     1.49100
Zn1097     Zn  0.80551862  0.72623494  0.04856500     1.49500
O1098       O  0.83324859  0.66646244  0.04075916    -1.81000
O1099       O  0.98215437  0.72058742  0.02828934    -0.71600
O1100       O  0.77659427  0.58140130  0.00568557    -0.71500
O1101       O  0.81859562  0.55268825  0.06664797    -0.71000
O1102       O  0.91737877  0.69404618  0.00535103    -0.71700
O1103       O  0.92232934  0.62881725  0.06479082    -0.71300
O1104       O  0.73795452  0.51600065  0.02863732    -0.71800
O1105       O  0.73342424  0.68122750  0.06578197    -0.71200
O1106       O  0.80457003  0.72146975  0.00518307    -0.72000
O1107       O  0.70593751  0.57715875  0.06443166    -0.71400
O1108       O  0.78048413  0.76273572  0.02799716    -0.71800
O1109       O  0.87061225  0.79419471  0.06457795    -0.71800
O1110       O  0.94653510  0.76659708  0.06631180    -0.71500
C1111       C  0.97288548  0.71672549  0.01185190     0.80200
C1112       C  0.74333840  0.52564764  0.01220656     0.80700
C1113       C  0.87639622  0.57899625  0.07206322     0.79700
C1114       C  0.70202260  0.62337946  0.07141090     0.80100
C1115       C  0.78324578  0.75578005  0.01158563     0.81200
C1116       C  0.92018953  0.79813449  0.07178599     0.80300
C1117       C  0.95441017  0.88418257  0.13554175    -0.15400
C1118       C  0.94926134  0.86062829  0.12132725     0.08700
C1119       C  0.94674992  0.84542016  0.10344176     0.10500
C1120       C  0.94040436  0.83056529  0.08825490    -0.16200
C1121       C  0.88835549  0.55836867  0.08849582    -0.15400
C1122       C  0.89733179  0.55206156  0.10364024     0.08700
C1123       C  0.91113574  0.55022731  0.12145142     0.10500
C1124       C  0.93062184  0.54600784  0.13556761    -0.16200
C1125       C  0.67097632  0.61221427  0.08801845    -0.15400
C1126       C  0.65914381  0.60473910  0.10337296     0.08700
C1127       C  0.64769120  0.59300301  0.12139265     0.10500
C1128       C  0.62544382  0.57473421  0.13572448    -0.16200
C1129       C  0.93148192  0.56344732  0.17663784    -0.13300
C1130       C  0.90948251  0.60423570  0.17076695    -0.28500
H1131       H  0.92526057  0.55016937  0.19022461     0.15700
H1132       H  0.91590262  0.61761202  0.15718873     0.16300
C1133       C  0.89996728  0.80366884  0.17074075    -0.13300
C1134       C  0.93961440  0.86688337  0.17662845    -0.28500
H1135       H  0.88603520  0.79652957  0.15723212     0.15700
H1136       H  0.95350702  0.87405527  0.19014061     0.16300
C1137       C  0.64035314  0.57367893  0.17673172    -0.13300
C1138       C  0.70330066  0.59631494  0.17084662    -0.28500
H1139       H  0.63291402  0.57945229  0.19031375     0.15700
H1140       H  0.71067514  0.59029846  0.15728027     0.16300
C1141       C  0.73056331  0.95370724  0.54098920    -0.15400
C1142       C  0.74347339  0.97669360  0.55535501     0.08700
C1143       C  0.75038180  0.98930838  0.57337774     0.10500
C1144       C  0.74942851  0.50029727  0.58910258    -0.16200
C1145       C  0.00037876  0.75320115  0.58897004    -0.15400
C1146       C  0.51581311  0.75624271  0.57371365     0.08700
C1147       C  0.52775125  0.76327323  0.55565494     0.10500
C1148       C  0.55030396  0.77509082  0.54121073    -0.16200
C1149       C  0.72546409  0.77284991  0.54136435    -0.15400
C1150       C  0.73465881  0.76004991  0.55586558     0.08700
C1151       C  0.73986208  0.75298259  0.57394988     0.10500
C1152       C  0.74652245  0.74670701  0.58924459    -0.16200
C1153       C  0.76222303  0.53402396  0.50607467    -0.13300
C1154       C  0.73699935  0.96996775  0.49987615    -0.28500
H1155       H  0.75726309  0.54148868  0.51967840     0.15700
H1156       H  0.74210906  0.96277742  0.48623253     0.16300
C1157       C  0.97175824  0.72857943  0.50632106    -0.13300
C1158       C  0.53394932  0.76683215  0.50013828    -0.28500
H1159       H  0.96420138  0.71421299  0.51979413     0.15700
H1160       H  0.54128325  0.77943490  0.48648717     0.16300
C1161       C  0.77553274  0.74278936  0.50609288    -0.13300
C1162       C  0.73636759  0.76641524  0.50007580    -0.28500
H1163       H  0.78729977  0.74735888  0.51971645     0.15700
H1164       H  0.72442445  0.76133534  0.48644262     0.16300
C1165       C  0.82910193  0.94703893  0.92379704    -0.15400
C1166       C  0.84339082  0.95270220  0.90858900     0.08700
C1167       C  0.85825080  0.95336582  0.89077582     0.10500
C1168       C  0.88202400  0.95653666  0.87671407    -0.16200
C1169       C  0.55726789  0.88744203  0.92395239    -0.15400
C1170       C  0.55082981  0.89516949  0.90875691     0.08700
C1171       C  0.54871170  0.90747511  0.89088544     0.10500
C1172       C  0.54424944  0.92654484  0.87674420    -0.16200
C1173       C  0.61398731  0.67236128  0.92389526    -0.15400
C1174       C  0.60483668  0.65756654  0.90874755     0.08700
C1175       C  0.59106541  0.64237751  0.89095789     0.10500
C1176       C  0.57157046  0.61862119  0.87686418    -0.16200
C1177       C  0.78673147  0.88988067  0.80084330    -0.15400
C1178       C  0.80909893  0.89907939  0.78638329     0.08700
C1179       C  0.82094107  0.90434999  0.76830471     0.10500
C1180       C  0.83356968  0.91110015  0.75299907    -0.16200
C1181       C  0.59073937  0.93037416  0.75322261    -0.15400
C1182       C  0.59778390  0.92288165  0.76841835     0.08700
C1183       C  0.60383229  0.91377226  0.78634550     0.10500
C1184       C  0.61350184  0.89958933  0.80063251    -0.16200
C1185       C  0.57466566  0.66484144  0.75336431    -0.15400
C1186       C  0.58149324  0.67947095  0.76851807     0.08700
C1187       C  0.58945910  0.69345067  0.78646027     0.10500
C1188       C  0.60332357  0.71655355  0.80079941    -0.16200
C1189       C  0.56228902  0.92808934  0.83585606    -0.13300
C1190       C  0.60201698  0.90498745  0.84180259    -0.28500
H1191       H  0.54971683  0.92281164  0.82226909     0.15700
H1192       H  0.61481664  0.91082284  0.85538679     0.16300
C1193       C  0.86561761  0.93967321  0.83595220    -0.13300
C1194       C  0.80262659  0.89920426  0.84187235    -0.28500
H1195       H  0.87310160  0.95445436  0.82249074     0.15700
H1196       H  0.79552439  0.88437103  0.85534575     0.16300
C1197       C  0.57295467  0.63610237  0.83594756    -0.13300
C1198       C  0.59648017  0.69932708  0.84188070    -0.28500
H1199       H  0.57902851  0.62878013  0.82239052     0.15700
H1200       H  0.59000239  0.70635650  0.85544291     0.16300
C1201       C  0.88525078  0.78635318  0.21176685    -0.15400
C1202       C  0.88900758  0.80754356  0.22619571     0.08700
C1203       C  0.88859911  0.81877275  0.24420320     0.10500
C1204       C  0.89219516  0.83276689  0.25937211    -0.16200
C1205       C  0.95060481  0.61167606  0.25930972    -0.15400
C1206       C  0.93880754  0.61522977  0.24423488     0.08700
C1207       C  0.92538873  0.61529100  0.22632560     0.10500
C1208       C  0.90777198  0.61974091  0.21196605    -0.16200
C1209       C  0.71966099  0.59861408  0.21196826    -0.15400
C1210       C  0.69682906  0.58150716  0.22630665     0.08700
C1211       C  0.68240622  0.56880548  0.24420275     0.10500
C1212       C  0.66604816  0.55743873  0.25923850    -0.16200
C1213       C  0.72378142  0.00124732  0.41744372    -0.15400
C1214       C  0.73493254  0.51609156  0.43275747     0.08700
C1215       C  0.74765544  0.53005709  0.45064149     0.10500
C1216       C  0.76533172  0.55212539  0.46498240    -0.16200
C1217       C  0.50843520  0.72056482  0.41832702    -0.15400
C1218       C  0.99171707  0.71291233  0.43360080     0.08700
C1219       C  0.97826846  0.71367252  0.45143847     0.10500
C1220       C  0.95576146  0.71165544  0.46559688    -0.16200
C1221       C  0.79289103  0.74214579  0.46495182    -0.15400
C1222       C  0.78818279  0.75910332  0.45052203     0.08700
C1223       C  0.78670677  0.77077594  0.43254597     0.10500
C1224       C  0.78130247  0.78115896  0.41746890    -0.16200
loop_ 
_geom_bond_atom_site_label_1 
_geom_bond_atom_site_label_2 
_geom_bond_distance 
_geom_bond_site_symmetry_2 
_ccdc_geom_bond_type 
Zn1           O5   1.904       .  S
Zn1           O6   1.996       .  S
Zn1          O10   2.014       .  S
Zn1          O17   2.078       .  S
Zn2           O5   1.909       .  S
Zn2           O7   1.992       .  S
Zn2           O9   2.008       .  S
Zn2          O13   2.073       .  S
Zn3           O5   1.909       .  S
Zn3           O8   1.998       .  S
Zn3          O11   2.014       .  S
Zn3          O14   2.080       .  S
Zn4           O5   1.836       .  S
Zn4          O12   1.943       .  S
Zn4          O15   1.945       .  S
Zn4          O16   1.950       .  S
O6           C18   1.275       .  A
O7           C19   1.275       .  A
O8           C20   1.275       .  A
O9           C18   1.275       .  A
O10          C20   1.276       .  A
O11          C19   1.276       .  A
O12          C21   1.261       .  A
O13          C22   1.278       .  A
O14          C21   1.280       .  A
O15          C22   1.261       .  A
O16          C23   1.262       .  A
O17          C23   1.279       .  A
C18          C43   1.459       .  S
C19          C46   1.459       .  S
C20          C44   1.462       .  S
C21         C306   1.430       .  S
C22         C299   1.428       .  S
C23         C295   1.432       .  S
Zn24        O334   1.904   1_545  S
Zn24         O29   2.079       .  S
Zn24         O40   2.013       .  S
Zn24        O339   2.003   1_545  S
Zn25         O28   1.832       .  S
Zn25        O642   1.948   1_455  S
Zn25        O338   1.941       .  S
Zn25        O954   1.950       .  S
Zn26        O640   1.905       .  S
Zn26         O34   2.086       .  S
Zn26         O37   2.004       .  S
Zn26        O643   2.019       .  S
Zn27        O946   1.908   1_545  S
Zn27         O38   2.083       .  S
Zn27        O341   2.012   1_545  S
Zn27        O651   2.007       .  S
O28        Zn330   1.905       .  S
O28        Zn638   1.904   1_455  S
O28        Zn945   1.902   1_455  S
O29          C41   1.280       .  A
O30        Zn637   1.946       .  S
O30          C42   1.262       .  A
O31        Zn638   2.014   1_455  S
O31          C43   1.276       .  A
O32        Zn331   1.950   1_455  S
O32          C41   1.263   1_565  A
O33        Zn330   1.994       .  S
O33          C43   1.275       .  A
O34          C42   1.280       .  A
O35        Zn333   2.014       .  S
O35          C44   1.276       .  A
O36        Zn943   1.943   1_545  S
O36          C45   1.262       .  A
O37          C44   1.276       .  A
O38          C45   1.280       .  A
O39        Zn639   1.991   1_455  S
O39          C46   1.274       .  A
O40          C46   1.276       .  A
C41         C294   1.432       .  S
C42         C286   1.434       .  S
C45         C287   1.432       .  S
C47          H48   1.117       .  S
C47          C53   1.514       .  S
C47          C52   1.514       .  S
C47          C51   1.514       .  S
C49          H50   1.110       .  S
C49          C55   1.608       .  S
C49          C54   1.608       .  S
C49          C56   1.607       .  S
C51          C54   1.374       .  D
C51         C259   1.437       .  S
C52          C55   1.376       .  D
C52         C266   1.440       .  S
C53          C56   1.375       .  D
C53         C270   1.439       .  S
C54         C276   1.553       .  S
C55         C272   1.553       .  S
C56         C280   1.552       .  S
C57          H58   1.110       .  S
C57          C62   1.606       .  S
C57         C675   1.606       .  S
C57         C979   1.606       .  S
C59         H672   1.116       .  S
C59         C371   1.517   1_545  S
C59         C676   1.517       .  S
C59         C984   1.516   1_545  S
H60         C671   1.116       .  S
C61         C975   1.605   1_545  S
C61          C64   1.374       .  D
C61         C279   1.550       .  S
C62          C65   1.373       .  D
C62         C275   1.553       .  S
C63         C669   1.602   1_455  S
C63          C66   1.375       .  D
C63         C271   1.548       .  S
C64         C671   1.517   1_445  S
C64         C258   1.440       .  S
C65         C365   1.517       .  S
C65         C250   1.437       .  S
C66         C977   1.518   1_455  S
C66         C254   1.442       .  S
C67          H68   1.117       .  S
C67          C73   1.513       .  S
C67          C72   1.513       .  S
C67          C71   1.513       .  S
C69          H70   1.110       .  S
C69          C75   1.607       .  S
C69          C74   1.606       .  S
C69          C76   1.607       .  S
C71          C74   1.374       .  D
C71         C223   1.440       .  S
C72          C75   1.374       .  D
C72         C231   1.438       .  S
C73          C76   1.373       .  D
C73         C230   1.436       .  S
C74         C236   1.548       .  S
C75         C244   1.550       .  S
C76         C240   1.552       .  S
C77          H78   1.117       .  S
C77          C83   1.514       .  S
C77          C82   1.513       .  S
C77          C81   1.514       .  S
C79          H80   1.110       .  S
C79          C85   1.605       .  S
C79          C84   1.605       .  S
C79          C86   1.605       .  S
C81          C84   1.373       .  D
C81         C298   1.436       .  S
C82          C85   1.372       .  D
C82         C302   1.436       .  S
C83          C86   1.373       .  D
C83         C303   1.438       .  S
C84         C235   1.549       .  S
C85         C239   1.547       .  S
C86         C243   1.548       .  S
Zn87         O91   1.934       .  S
Zn87         O92   1.995       .  S
Zn87         O96   2.031       .  S
Zn87        O103   1.997       .  S
Zn88         O91   1.931       .  S
Zn88         O93   2.025       .  S
Zn88         O95   2.006       .  S
Zn88         O99   1.995       .  S
Zn89         O91   1.922       .  S
Zn89         O94   1.903       .  S
Zn89         O97   1.904       .  S
Zn89        O100   1.893       .  S
Zn90         O91   1.938       .  S
Zn90         O98   2.026       .  S
Zn90        O101   2.009       .  S
Zn90        O102   1.994       .  S
O92         C104   1.269       .  A
O93         C105   1.278       .  A
O94         C106   1.255       .  A
O95         C104   1.271       .  A
O96         C106   1.278       .  A
O97         C105   1.256       .  A
O98         C107   1.278       .  A
O99         C108   1.269       .  A
O100        C107   1.255       .  A
O101        C108   1.271       .  A
O102        C109   1.269       .  A
O103        C109   1.270       .  A
C104        C226   1.431       .  S
C105        C127   1.442       .  S
C106        C131   1.445       .  S
C107        C128   1.440       .  S
C108        C234   1.432       .  S
C109        C227   1.428       .  S
Zn110       O114   1.940       .  S
Zn110       O115   2.028       .  S
Zn110       O126   2.006       .  S
Zn110       O425   2.003   1_545  S
Zn111       O114   1.927       .  S
Zn111       O118   1.901       .  S
Zn111      O1034   1.908   1_445  S
Zn111       O734   1.911   1_455  S
Zn112      O1032   1.936       .  S
Zn112       O120   2.018       .  S
Zn112       O123   1.998       .  S
Zn112       O729   2.002       .  S
Zn113       O726   1.936       .  S
Zn113       O124   2.030       .  S
Zn113       O427   2.008   1_545  S
Zn113       O737   2.003       .  S
O114      Zn1030   1.936   1_445  S
O114       Zn725   1.936   1_455  S
O115        C127   1.278       .  A
O116      Zn1029   1.903       .  S
O116        C128   1.255       .  A
O117       Zn724   2.005   1_455  S
O117        C129   1.271       .  A
O118        C127   1.256       .  A
O119       Zn416   2.003       .  S
O119        C129   1.270       .  A
O120        C128   1.278       .  A
O121       Zn419   2.004       .  S
O121        C130   1.270       .  A
O122       Zn723   1.912       .  S
O122        C131   1.257       .  A
O123        C130   1.269       .  A
O124        C131   1.279       .  A
O125       Zn725   2.002   1_455  S
O125        C132   1.270       .  A
O126        C132   1.271       .  A
C129        C263   1.434       .  S
C130        C262   1.431       .  S
C132        C267   1.433       .  S
C133        H134   1.116       .  S
C133        C139   1.515       .  S
C133        C138   1.515       .  S
C133        C137   1.516       .  S
C135        H136   1.110       .  S
C135        C141   1.608       .  S
C135        C140   1.608       .  S
C135        C142   1.608       .  S
C137        C140   1.374       .  D
C137        C291   1.439       .  S
C138        C141   1.376       .  D
C138        C283   1.441       .  S
C139        C142   1.374       .  D
C139        C290   1.439       .  S
C140        C220   1.555       .  S
C141        C215   1.552       .  S
C142        C212   1.553       .  S
C143        H144   1.116       .  S
C143        C148   1.518   1_655  S
C143        C761   1.516       .  S
C143       C1065   1.517   1_545  S
C145        H146   1.110       .  S
C145        C152   1.607   1_565  S
C145        C763   1.606   1_565  S
C145        C456   1.607       .  S
C147       C1061   1.516       .  S
C147        C150   1.375       .  D
C147        C199   1.440       .  S
C148        C151   1.374       .  D
C148        C210   1.440       .  S
C149        C755   1.516   1_545  S
C149        C152   1.374       .  D
C149        C206   1.439       .  S
C150        C451   1.605       .  S
C150        C216   1.551       .  S
C151        C757   1.606       .  S
C151        C219   1.555       .  S
C152        C211   1.552       .  S
Zn153       O157   1.930       .  S
Zn153       O158   1.919   1_556  S
Zn153       O162   1.930   1_556  S
Zn153       O169   1.930   1_556  S
Zn154       O157   1.945       .  S
Zn154       O159   2.001       .  S
Zn154       O161   2.038       .  S
Zn154       O165   2.007       .  S
Zn155       O157   1.939       .  S
Zn155       O160   2.037       .  S
Zn155       O163   2.016       .  S
Zn155       O166   2.008       .  S
Zn156       O157   1.942       .  S
Zn156       O164   2.019       .  S
Zn156       O167   2.002       .  S
Zn156       O168   2.043       .  S
O158        C170   1.259   1_554  A
O159        C171   1.269       .  A
O160        C172   1.280   1_556  A
O161        C170   1.278       .  A
O162        C172   1.260       .  A
O163        C171   1.273       .  A
O164        C173   1.273       .  A
O165        C174   1.272       .  A
O166        C173   1.270       .  A
O167        C174   1.269       .  A
O168        C175   1.280       .  A
O169        C175   1.260   1_554  A
C170        C197   1.450   1_556  S
C171        C255   1.434       .  S
C172        C805   1.450   1_455  S
C173        C251   1.436       .  S
C174        C247   1.431       .  S
C175        C500   1.453   1_556  S
Zn176       O180   1.937       .  S
Zn176       O181   2.030       .  S
Zn176       O185   2.005       .  S
Zn176       O192   2.004       .  S
Zn177       O180   1.939       .  S
Zn177       O182   1.927       .  S
Zn177       O184   1.930       .  S
Zn177       O188   1.938       .  S
Zn178       O180   1.943       .  S
Zn178       O183   2.003       .  S
Zn178       O186   2.033       .  S
Zn178       O189   2.005       .  S
Zn179       O180   1.940       .  S
Zn179       O187   2.009       .  S
Zn179       O190   2.028       .  S
Zn179       O191   2.008       .  S
O181        C193   1.279       .  A
O182        C194   1.260       .  A
O183        C195   1.269       .  A
O184        C193   1.259       .  A
O185        C195   1.270       .  A
O186        C194   1.278       .  A
O187        C196   1.270       .  A
O188        C197   1.260       .  A
O189        C196   1.270       .  A
O190        C197   1.279       .  A
O191        C198   1.271       .  A
O192        C198   1.270       .  A
C193        C784   1.448   1_554  S
C194        C481   1.450   1_545  S
C195        C203   1.433       .  S
C196        C207   1.434       .  S
C198        C202   1.434       .  S
C199        C200   1.206       .  T
C200        C201   1.415       .  S
C201        C202   1.207       .  T
C203        C204   1.206       .  T
C204        C205   1.413       .  S
C205        C206   1.205       .  T
C207        C208   1.207       .  T
C208        C209   1.414       .  S
C209        C210   1.206       .  T
C211        C212   1.396       .  D
C211        H213   1.079       .  S
C212        H214   1.080       .  S
C215        C216   1.394       .  D
C215        H217   1.080       .  S
C216        H218   1.079       .  S
C219        C220   1.397       .  D
C219        H221   1.080       .  S
C220        H222   1.080       .  S
C223        C224   1.206       .  T
C224        C225   1.414       .  S
C225        C532   1.207       .  T
C226        C531   1.205   1_545  T
C227        C840   1.203       .  T
C228        C839   1.204   1_455  T
C228        C229   1.410       .  S
C229        C230   1.203       .  T
C231        C232   1.205       .  T
C232        C233   1.412       .  S
C233        C234   1.206       .  T
C235        C542   1.395   1_545  D
C235        H237   1.080       .  S
C236        C541   1.393       .  D
C236        H238   1.079       .  S
C239        C852   1.395       .  D
C239        H241   1.077       .  S
C240        C851   1.396   1_455  D
C240        H242   1.079       .  S
C243        C244   1.394       .  D
C243        H245   1.080       .  S
C244        H246   1.081       .  S
C247        C248   1.205       .  T
C248        C249   1.411       .  S
C249        C250   1.204       .  T
C251        C252   1.208       .  T
C252        C253   1.416       .  S
C253        C254   1.207       .  T
C255        C256   1.207       .  T
C256        C257   1.413       .  S
C257        C258   1.206       .  T
C259        C260   1.204       .  T
C260        C261   1.412       .  S
C261        C262   1.205       .  T
C263        C264   1.207       .  T
C264        C265   1.414       .  S
C265        C266   1.206       .  T
C267        C268   1.206       .  T
C268        C269   1.413       .  S
C269        C270   1.205       .  T
C271        C272   1.393       .  D
C271        H273   1.078       .  S
C272        H274   1.081       .  S
C275        C276   1.397       .  D
C275        H277   1.079       .  S
C276        H278   1.080       .  S
C279        C280   1.395       .  D
C279        H281   1.079       .  S
C280        H282   1.080       .  S
C283        C284   1.207       .  T
C284        C285   1.415       .  S
C285        C286   1.207       .  T
C287        C288   1.206       .  T
C288        C289   1.413       .  S
C289        C290   1.205       .  T
C291        C292   1.205       .  T
C292        C293   1.413       .  S
C293        C294   1.206       .  T
C295        C602   1.206       .  T
C296        C601   1.204   1_545  T
C296        C297   1.410       .  S
C297        C298   1.203       .  T
C299        C912   1.204   1_455  T
C300        C911   1.205       .  T
C300        C301   1.410       .  S
C301        C302   1.203       .  T
C303        C304   1.204       .  T
C304        C305   1.412       .  S
C305        C306   1.205       .  T
Zn307       O311   1.904       .  S
Zn307       O312   1.998       .  S
Zn307       O316   2.009       .  S
Zn307       O323   2.074       .  S
Zn308       O311   1.903       .  S
Zn308       O313   1.991       .  S
Zn308       O315   2.015       .  S
Zn308       O319   2.078       .  S
Zn309       O311   1.904       .  S
Zn309       O314   1.992       .  S
Zn309       O317   2.006       .  S
Zn309       O320   2.073       .  S
Zn310       O311   1.832       .  S
Zn310       O318   1.947       .  S
Zn310       O321   1.942       .  S
Zn310       O322   1.945       .  S
O312        C324   1.275       .  A
O313        C325   1.275       .  A
O314        C326   1.275       .  A
O315        C324   1.277       .  A
O316        C326   1.275       .  A
O317        C325   1.275       .  A
O318        C327   1.262       .  A
O319        C328   1.279       .  A
O320        C327   1.278       .  A
O321        C328   1.260       .  A
O322        C329   1.261       .  A
O323        C329   1.278       .  A
C324        C349   1.462       .  S
C325        C352   1.457       .  S
C326        C350   1.458       .  S
C327        C612   1.429       .  S
C328        C605   1.429       .  S
C329        C601   1.429       .  S
Zn330       O335   2.082       .  S
Zn330       O346   2.009       .  S
Zn331       O334   1.837   1_655  S
Zn331       O948   1.945       .  S
Zn331       O648   1.946   1_665  S
Zn332       O946   1.911       .  S
Zn332       O949   2.004       .  S
Zn332       O340   2.082       .  S
Zn332       O343   1.991       .  S
Zn333       O640   1.909       .  S
Zn333       O344   2.083       .  S
Zn333       O957   2.000       .  S
O334       Zn944   1.912   1_455  S
O334       Zn639   1.906   1_465  S
O335        C347   1.280       .  A
O336       Zn943   1.944       .  S
O336        C348   1.260       .  A
O337       Zn944   2.012   1_455  S
O337        C349   1.275       .  A
O338        C347   1.260       .  A
O339        C349   1.275       .  A
O340        C348   1.278       .  A
O341        C350   1.276       .  A
O342       Zn637   1.948       .  S
O342        C351   1.261       .  A
O343        C350   1.275       .  A
O344        C351   1.280       .  A
O345       Zn945   1.991   1_455  S
O345        C352   1.275       .  A
O346        C352   1.276       .  A
C347        C600   1.431       .  S
C348        C592   1.431       .  S
C351        C593   1.433       .  S
C353        H354   1.117       .  S
C353        C359   1.514       .  S
C353        C358   1.515       .  S
C353        C357   1.514       .  S
C355        H356   1.110       .  S
C355        C361   1.606       .  S
C355        C360   1.608       .  S
C355        C362   1.606       .  S
C357        C360   1.376       .  D
C357        C565   1.440       .  S
C358        C361   1.374       .  D
C358        C572   1.437       .  S
C359        C362   1.376       .  D
C359        C576   1.442       .  S
C360        C582   1.553       .  S
C361        C578   1.554       .  S
C362        C586   1.549       .  S
C363        H364   1.110       .  S
C363        C981   1.605   1_545  S
C363        C368   1.605   1_545  S
C363        C673   1.604       .  S
C365        H978   1.116       .  S
C365        C982   1.518       .  S
C365        C678   1.517       .  S
H366        C977   1.116       .  S
C367        C669   1.602   1_455  S
C367        C370   1.375       .  D
C367        C585   1.547       .  S
C368        C371   1.374       .  D
C368        C581   1.550       .  S
C369        C975   1.608       .  S
C369        C372   1.375       .  D
C369        C577   1.552       .  S
C370        C977   1.517   1_455  S
C370        C564   1.443       .  S
C371        C556   1.440       .  S
C372        C671   1.516   1_455  S
C372        C560   1.440       .  S
C373        H374   1.117       .  S
C373        C379   1.513       .  S
C373        C378   1.513       .  S
C373        C377   1.514       .  S
C375        H376   1.110       .  S
C375        C381   1.608       .  S
C375        C380   1.606       .  S
C375        C382   1.607       .  S
C377        C380   1.374       .  D
C377        C529   1.437       .  S
C378        C381   1.374       .  D
C378        C537   1.436       .  S
C379        C382   1.374       .  D
C379        C536   1.439       .  S
C380        C542   1.550       .  S
C381        C550   1.553       .  S
C382        C546   1.550       .  S
C383        H384   1.116       .  S
C383        C389   1.515       .  S
C383        C388   1.514       .  S
C383        C387   1.514       .  S
C385        H386   1.110       .  S
C385        C391   1.605       .  S
C385        C390   1.605       .  S
C385        C392   1.604       .  S
C387        C390   1.374       .  D
C387        C604   1.439       .  S
C388        C391   1.373       .  D
C388        C608   1.436       .  S
C389        C392   1.373       .  D
C389        C609   1.436       .  S
C390        C541   1.547       .  S
C391        C545   1.549       .  S
C392        C549   1.549       .  S
Zn393       O397   1.936       .  S
Zn393       O398   2.005       .  S
Zn393       O402   2.023       .  S
Zn393       O409   1.997       .  S
Zn394       O397   1.938       .  S
Zn394       O399   2.028       .  S
Zn394       O401   2.007       .  S
Zn394       O405   1.997       .  S
Zn395       O397   1.928       .  S
Zn395       O400   1.912       .  S
Zn395       O403   1.900       .  S
Zn395       O406   1.917       .  S
Zn396       O397   1.935       .  S
Zn396       O404   2.033       .  S
Zn396       O407   2.002       .  S
Zn396       O408   1.997       .  S
O398        C410   1.270       .  A
O399        C411   1.278       .  A
O400        C412   1.257       .  A
O401        C410   1.270       .  A
O402        C412   1.278       .  A
O403        C411   1.256       .  A
O404        C413   1.279       .  A
O405        C414   1.269       .  A
O406        C413   1.257       .  A
O407        C414   1.270       .  A
O408        C415   1.270       .  A
O409        C415   1.270       .  A
C410        C532   1.434       .  S
C411        C433   1.442       .  S
C412        C437   1.443       .  S
C413        C434   1.448       .  S
C414        C540   1.430       .  S
C415        C533   1.429       .  S
Zn416       O420   1.938       .  S
Zn416       O421   2.022       .  S
Zn416       O432   2.005       .  S
Zn417       O420   1.933       .  S
Zn417       O728   1.905   1_455  S
Zn417       O424   1.912       .  S
Zn417      O1040   1.909   1_455  S
Zn418       O726   1.936   1_565  S
Zn418      O1035   2.009       .  S
Zn418       O426   2.040       .  S
Zn418       O429   2.002       .  S
Zn419      O1032   1.937       .  S
Zn419       O430   2.029       .  S
Zn419      O1043   1.997       .  S
O420       Zn724   1.940   1_455  S
O420      Zn1031   1.934   1_455  S
O421        C433   1.278       .  A
O422       Zn723   1.912   1_565  S
O422        C434   1.257       .  A
O423      Zn1030   2.003   1_455  S
O423        C435   1.270       .  A
O424        C433   1.257       .  A
O425        C435   1.270       .  A
O426        C434   1.280       .  A
O427        C436   1.271       .  A
O428      Zn1029   1.902       .  S
O428        C437   1.256       .  A
O429        C436   1.270       .  A
O430        C437   1.278       .  A
O431      Zn1031   2.007   1_455  S
O431        C438   1.270       .  A
O432        C438   1.270       .  A
C435        C569   1.431       .  S
C436        C568   1.435       .  S
C438        C573   1.435       .  S
C439        H440   1.117       .  S
C439        C445   1.513       .  S
C439        C444   1.516       .  S
C439        C443   1.514       .  S
C441        H442   1.110       .  S
C441        C447   1.604       .  S
C441        C446   1.606       .  S
C441        C448   1.606       .  S
C443        C446   1.374       .  D
C443        C597   1.439       .  S
C444        C447   1.376       .  D
C444        C589   1.438       .  S
C445        C448   1.374       .  D
C445        C596   1.441       .  S
C446        C526   1.550       .  S
C447        C521   1.551       .  S
C448        C518   1.548       .  S
C449        H450   1.116       .  S
C449       C1067   1.518   1_455  S
C449        C454   1.517       .  S
C449        C759   1.516   1_455  S
C451        H452   1.110       .  S
C451       C1069   1.606       .  S
C451        C458   1.606       .  S
C453        C755   1.517       .  S
C453        C456   1.376       .  D
C453        C505   1.441       .  S
C454        C457   1.374       .  D
C454        C516   1.440       .  S
C455       C1061   1.515       .  S
C455        C458   1.375       .  D
C455        C512   1.443       .  S
C456        C522   1.554       .  S
C457       C1063   1.604       .  S
C457        C525   1.550       .  S
C458        C517   1.549       .  S
Zn459       O463   1.933       .  S
Zn459       O464   1.928   1_556  S
Zn459       O468   1.932   1_556  S
Zn459       O475   1.933   1_556  S
Zn460       O463   1.943       .  S
Zn460       O465   2.006       .  S
Zn460       O467   2.029       .  S
Zn460       O471   2.009       .  S
Zn461       O463   1.942       .  S
Zn461       O466   2.044       .  S
Zn461       O469   2.014       .  S
Zn461       O472   2.003       .  S
Zn462       O463   1.941       .  S
Zn462       O470   2.011       .  S
Zn462       O473   2.007       .  S
Zn462       O474   2.033       .  S
O464        C476   1.260   1_554  A
O465        C477   1.270       .  A
O466        C478   1.279       .  A
O467        C476   1.278       .  A
O468        C478   1.260   1_554  A
O469        C477   1.272       .  A
O470        C479   1.272       .  A
O471        C480   1.271       .  A
O472        C479   1.270       .  A
O473        C480   1.269       .  A
O474        C481   1.279   1_556  A
O475        C481   1.260       .  A
C476        C503   1.448   1_556  S
C477        C561   1.436       .  S
C478       C1111   1.453   1_456  S
C479        C557   1.434       .  S
C480        C553   1.434       .  S
Zn482       O486   1.939       .  S
Zn482       O487   2.019       .  S
Zn482       O491   2.003       .  S
Zn482       O498   2.001       .  S
Zn483       O486   1.937       .  S
Zn483       O488   1.938       .  S
Zn483       O490   1.931       .  S
Zn483       O494   1.933       .  S
Zn484       O486   1.940       .  S
Zn484       O489   2.014       .  S
Zn484       O492   2.043       .  S
Zn484       O495   2.009       .  S
Zn485       O486   1.939       .  S
Zn485       O493   1.999       .  S
Zn485       O496   2.028       .  S
Zn485       O497   2.007       .  S
O487        C499   1.277       .  A
O488        C500   1.261       .  A
O489        C501   1.271       .  A
O490        C499   1.260       .  A
O491        C501   1.270       .  A
O492        C500   1.280       .  A
O493        C502   1.269       .  A
O494        C503   1.260       .  A
O495        C502   1.272       .  A
O496        C503   1.278       .  A
O497        C504   1.271       .  A
O498        C504   1.269       .  A
C499       C1090   1.446   1_554  S
C501        C509   1.437       .  S
C502        C513   1.433       .  S
C504        C508   1.434       .  S
C505        C506   1.206       .  T
C506        C507   1.415       .  S
C507        C508   1.207       .  T
C509        C510   1.208       .  T
C510        C511   1.416       .  S
C511        C512   1.207       .  T
C513        C514   1.207       .  T
C514        C515   1.413       .  S
C515        C516   1.205       .  T
C517        C518   1.393       .  D
C517        H519   1.080       .  S
C518        H520   1.079       .  S
C521        C522   1.394       .  D
C521        H523   1.079       .  S
C522        H524   1.080       .  S
C525        C526   1.394       .  D
C525        H527   1.080       .  S
C526        H528   1.080       .  S
C529        C530   1.204       .  T
C530        C531   1.411       .  S
C533       C1146   1.205       .  T
C534       C1145   1.206       .  T
C534        C535   1.413       .  S
C535        C536   1.205       .  T
C537        C538   1.203       .  T
C538        C539   1.410       .  S
C539        C540   1.205       .  T
C541        H543   1.078       .  S
C542        H544   1.081       .  S
C545       C1158   1.395       .  D
C545        H547   1.081       .  S
C546       C1157   1.395   1_455  D
C546        H548   1.078       .  S
C549        C550   1.396       .  D
C549        H551   1.077       .  S
C550        H552   1.080       .  S
C553        C554   1.207       .  T
C554        C555   1.415       .  S
C555        C556   1.206       .  T
C557        C558   1.207       .  T
C558        C559   1.414       .  S
C559        C560   1.206       .  T
C561        C562   1.208       .  T
C562        C563   1.415       .  S
C563        C564   1.207       .  T
C565        C566   1.206       .  T
C566        C567   1.415       .  S
C567        C568   1.208       .  T
C569        C570   1.205       .  T
C570        C571   1.411       .  S
C571        C572   1.204       .  T
C573        C574   1.208       .  T
C574        C575   1.416       .  S
C575        C576   1.207       .  T
C577        C578   1.396       .  D
C577        H579   1.078       .  S
C578        H580   1.079       .  S
C581        C582   1.394       .  D
C581        H583   1.078       .  S
C582        H584   1.080       .  S
C585        C586   1.391       .  D
C585        H587   1.079       .  S
C586        H588   1.080       .  S
C589        C590   1.206       .  T
C590        C591   1.414       .  S
C591        C592   1.206       .  T
C593        C594   1.207       .  T
C594        C595   1.415       .  S
C595        C596   1.206       .  T
C597        C598   1.205       .  T
C598        C599   1.413       .  S
C599        C600   1.206       .  T
C602        C603   1.413       .  S
C603        C604   1.205       .  T
C605       C1218   1.205   1_455  T
C606       C1217   1.204       .  T
C606        C607   1.409       .  S
C607        C608   1.203       .  T
C609        C610   1.204       .  T
C610        C611   1.410       .  S
C611        C612   1.204       .  T
Zn613       O617   1.907       .  S
Zn613       O618   2.001       .  S
Zn613       O622   2.007       .  S
Zn613       O629   2.082       .  S
Zn614       O617   1.906       .  S
Zn614       O619   2.004       .  S
Zn614       O621   2.014       .  S
Zn614       O625   2.078       .  S
Zn615       O617   1.910       .  S
Zn615       O620   1.996       .  S
Zn615       O623   2.013       .  S
Zn615       O626   2.077       .  S
Zn616       O617   1.836       .  S
Zn616       O624   1.946       .  S
Zn616       O627   1.944       .  S
Zn616       O628   1.946       .  S
O618        C630   1.276       .  A
O619        C631   1.275       .  A
O620        C632   1.275       .  A
O621        C630   1.277       .  A
O622        C632   1.276       .  A
O623        C631   1.276       .  A
O624        C633   1.261       .  A
O625        C634   1.280       .  A
O626        C633   1.279       .  A
O627        C634   1.262       .  A
O628        C635   1.261       .  A
O629        C635   1.279       .  A
C630        C655   1.462       .  S
C631        C658   1.462       .  S
C632        C656   1.458       .  S
C633        C918   1.430       .  S
C634        C911   1.429       .  S
C635        C907   1.432       .  S
Zn636       O946   1.908   1_545  S
Zn636       O641   2.074       .  S
Zn636       O951   1.999   1_545  S
Zn636       O652   2.010       .  S
Zn637       O640   1.836       .  S
Zn637       O950   1.945       .  S
Zn638       O646   2.079       .  S
Zn638       O649   1.999       .  S
Zn639       O953   2.000   1_545  S
Zn639       O650   2.076       .  S
O640       Zn942   1.907       .  S
O641        C653   1.279       .  A
O642        C654   1.262       .  A
O643        C655   1.277       .  A
O644       Zn943   1.947       .  S
O644        C653   1.262   1_565  A
O645       Zn942   1.999       .  S
O645        C655   1.275       .  A
O646        C654   1.280       .  A
O647       Zn945   2.004       .  S
O647        C656   1.275       .  A
O648        C657   1.262   1_455  A
O649        C656   1.275       .  A
O650        C657   1.279       .  A
O651        C658   1.276       .  A
O652        C658   1.275       .  A
C653        C906   1.429       .  S
C654        C898   1.432       .  S
C657        C899   1.431       .  S
C659        H660   1.117       .  S
C659        C665   1.514       .  S
C659        C664   1.514       .  S
C659        C663   1.514       .  S
C661        H662   1.110       .  S
C661        C667   1.606       .  S
C661        C666   1.607       .  S
C661        C668   1.607       .  S
C663        C666   1.376       .  D
C663        C871   1.441       .  S
C664        C667   1.373       .  D
C664        C878   1.435       .  S
C665        C668   1.376       .  D
C665        C882   1.441       .  S
C666        C888   1.552       .  S
C667        C884   1.553       .  S
C668        C892   1.552       .  S
C669        H670   1.110       .  S
C669        C674   1.603       .  S
C671        C983   1.517       .  S
C673        C676   1.375       .  D
C673        C891   1.549       .  S
C674        C677   1.374       .  D
C674        C887   1.550       .  S
C675        C678   1.374       .  D
C675        C883   1.549       .  S
C676        C870   1.442       .  S
C677        C977   1.518       .  S
C677        C862   1.440       .  S
C678        C866   1.443       .  S
C679        H680   1.117       .  S
C679        C685   1.513       .  S
C679        C684   1.513       .  S
C679        C683   1.514       .  S
C681        H682   1.110       .  S
C681        C687   1.605       .  S
C681        C686   1.606       .  S
C681        C688   1.605       .  S
C683        C686   1.375       .  D
C683        C835   1.438       .  S
C684        C687   1.374       .  D
C684        C843   1.438       .  S
C685        C688   1.372       .  D
C685        C842   1.434       .  S
C686        C848   1.551       .  S
C687        C856   1.547       .  S
C688        C852   1.549       .  S
C689        H690   1.117       .  S
C689        C695   1.512       .  S
C689        C694   1.514       .  S
C689        C693   1.513       .  S
C691        H692   1.110       .  S
C691        C697   1.604       .  S
C691        C696   1.604       .  S
C691        C698   1.605       .  S
C693        C696   1.373       .  D
C693        C910   1.436       .  S
C694        C697   1.372       .  D
C694        C914   1.435       .  S
C695        C698   1.373       .  D
C695        C915   1.437       .  S
C696        C847   1.548       .  S
C697        C851   1.549       .  S
C698        C855   1.546       .  S
Zn699       O703   1.937       .  S
Zn699       O704   1.999       .  S
Zn699       O708   2.031       .  S
Zn699       O715   1.999       .  S
Zn700       O703   1.933       .  S
Zn700       O705   2.024       .  S
Zn700       O707   2.002       .  S
Zn700       O711   1.995       .  S
Zn701       O703   1.928       .  S
Zn701       O706   1.911       .  S
Zn701       O709   1.905       .  S
Zn701       O712   1.914       .  S
Zn702       O703   1.937       .  S
Zn702       O710   2.031       .  S
Zn702       O713   2.011       .  S
Zn702       O714   1.998       .  S
O704        C716   1.269       .  A
O705        C717   1.278       .  A
O706        C718   1.257       .  A
O707        C716   1.270       .  A
O708        C718   1.278       .  A
O709        C717   1.257       .  A
O710        C719   1.279       .  A
O711        C720   1.268       .  A
O712        C719   1.257       .  A
O713        C720   1.271       .  A
O714        C721   1.270       .  A
O715        C721   1.270       .  A
C716        C838   1.431       .  S
C717        C739   1.443       .  S
C718        C743   1.446       .  S
C719        C740   1.446       .  S
C720        C846   1.432       .  S
C721        C839   1.430       .  S
Zn722       O726   1.940       .  S
Zn722       O727   2.027       .  S
Zn722      O1037   2.004       .  S
Zn722       O738   2.007       .  S
Zn723       O726   1.934       .  S
Zn723       O730   1.907       .  S
Zn724       O732   2.038       .  S
Zn724       O735   2.009       .  S
Zn725      O1039   2.005   1_545  S
Zn725       O736   2.030       .  S
O727        C739   1.278       .  A
O728        C740   1.256       .  A
O729        C741   1.270       .  A
O730        C739   1.256       .  A
O731      Zn1028   1.996       .  S
O731        C741   1.269       .  A
O732        C740   1.279       .  A
O733      Zn1031   2.003       .  S
O733        C742   1.270       .  A
O734        C743   1.256       .  A
O735        C742   1.271       .  A
O736        C743   1.278       .  A
O737        C744   1.270       .  A
O738        C744   1.271       .  A
C741        C875   1.429       .  S
C742        C874   1.435       .  S
C744        C879   1.435       .  S
C745        H746   1.116       .  S
C745        C751   1.516       .  S
C745        C750   1.514       .  S
C745        C749   1.515       .  S
C747        H748   1.110       .  S
C747        C753   1.605       .  S
C747        C752   1.606       .  S
C747        C754   1.605       .  S
C749        C752   1.373       .  D
C749        C903   1.437       .  S
C750        C753   1.374       .  D
C750        C895   1.440       .  S
C751        C754   1.375       .  D
C751        C902   1.439       .  S
C752        C832   1.552       .  S
C753        C827   1.547       .  S
C754        C824   1.550       .  S
C755        H756   1.116       .  S
C755        C760   1.516   1_565  S
C757        H758   1.110       .  S
C757       C1068   1.607   1_445  S
C757        C764   1.609   1_455  S
C759        C762   1.374       .  D
C759        C811   1.442       .  S
C760        C763   1.374       .  D
C760        C822   1.443       .  S
C761        C764   1.375       .  D
C761        C818   1.444       .  S
C762       C1063   1.604   1_655  S
C762        C828   1.547       .  S
C763        C831   1.549       .  S
C764        C823   1.552       .  S
Zn765       O769   1.928       .  S
Zn765       O770   1.921   1_556  S
Zn765       O774   1.917   1_556  S
Zn765       O781   1.925   1_556  S
Zn766       O769   1.939       .  S
Zn766       O771   2.009       .  S
Zn766       O773   2.051       .  S
Zn766       O777   2.013       .  S
Zn767       O769   1.940       .  S
Zn767       O772   2.037       .  S
Zn767       O775   2.014       .  S
Zn767       O778   2.009       .  S
Zn768       O769   1.943       .  S
Zn768       O776   2.020       .  S
Zn768       O779   2.001       .  S
Zn768       O780   2.041       .  S
O770        C782   1.259   1_554  A
O771        C783   1.270       .  A
O772        C784   1.279       .  A
O773        C782   1.281       .  A
O774        C784   1.259   1_554  A
O775        C783   1.273       .  A
O776        C785   1.273       .  A
O777        C786   1.273       .  A
O778        C785   1.270       .  A
O779        C786   1.270       .  A
O780        C787   1.279   1_556  A
O781        C787   1.259       .  A
C782        C809   1.452   1_556  S
C783        C867   1.436       .  S
C785        C863   1.438       .  S
C786        C859   1.433       .  S
C787       C1112   1.451       .  S
Zn788       O792   1.942       .  S
Zn788       O793   2.042       .  S
Zn788       O797   2.016       .  S
Zn788       O804   2.002       .  S
Zn789       O792   1.934       .  S
Zn789       O794   1.921       .  S
Zn789       O796   1.923       .  S
Zn789       O800   1.934       .  S
Zn790       O792   1.941       .  S
Zn790       O795   2.011       .  S
Zn790       O798   2.038       .  S
Zn790       O801   2.012       .  S
Zn791       O792   1.939       .  S
Zn791       O799   2.009       .  S
Zn791       O802   2.043       .  S
Zn791       O803   2.014       .  S
O793        C805   1.280       .  A
O794        C806   1.259       .  A
O795        C807   1.270       .  A
O796        C805   1.259       .  A
O797        C807   1.272       .  A
O798        C806   1.280       .  A
O799        C808   1.270       .  A
O800        C809   1.259       .  A
O801        C808   1.272       .  A
O802        C809   1.280       .  A
O803        C810   1.273       .  A
O804        C810   1.269       .  A
C806       C1093   1.448   1_545  S
C807        C815   1.438       .  S
C808        C819   1.436       .  S
C810        C814   1.435       .  S
C811        C812   1.206       .  T
C812        C813   1.415       .  S
C813        C814   1.207       .  T
C815        C816   1.209       .  T
C816        C817   1.418       .  S
C817        C818   1.208       .  T
C819        C820   1.208       .  T
C820        C821   1.416       .  S
C821        C822   1.207       .  T
C823        C824   1.394       .  D
C823        H825   1.080       .  S
C824        H826   1.080       .  S
C827        C828   1.392       .  D
C827        H829   1.080       .  S
C828        H830   1.080       .  S
C831        C832   1.394       .  D
C831        H833   1.080       .  S
C832        H834   1.081       .  S
C835        C836   1.205       .  T
C836        C837   1.412       .  S
C837       C1144   1.206       .  T
C838       C1143   1.205   1_545  T
C840        C841   1.408       .  S
C841        C842   1.202       .  T
C843        C844   1.205       .  T
C844        C845   1.413       .  S
C845        C846   1.206       .  T
C847       C1154   1.394   1_545  D
C847        H849   1.078       .  S
C848       C1153   1.394       .  D
C848        H850   1.079       .  S
C851        H853   1.077       .  S
C852        H854   1.078       .  S
C855        C856   1.393       .  D
C855        H857   1.077       .  S
C856        H858   1.078       .  S
C859        C860   1.206       .  T
C860        C861   1.413       .  S
C861        C862   1.205       .  T
C863        C864   1.208       .  T
C864        C865   1.416       .  S
C865        C866   1.207       .  T
C867        C868   1.208       .  T
C868        C869   1.416       .  S
C869        C870   1.207       .  T
C871        C872   1.207       .  T
C872        C873   1.415       .  S
C873        C874   1.208       .  T
C875        C876   1.204       .  T
C876        C877   1.410       .  S
C877        C878   1.203       .  T
C879        C880   1.207       .  T
C880        C881   1.415       .  S
C881        C882   1.206       .  T
C883        C884   1.395       .  D
C883        H885   1.078       .  S
C884        H886   1.080       .  S
C887        C888   1.394       .  D
C887        H889   1.078       .  S
C888        H890   1.080       .  S
C891        C892   1.394       .  D
C891        H893   1.079       .  S
C892        H894   1.080       .  S
C895        C896   1.206       .  T
C896        C897   1.413       .  S
C897        C898   1.206       .  T
C899        C900   1.206       .  T
C900        C901   1.413       .  S
C901        C902   1.206       .  T
C903        C904   1.204       .  T
C904        C905   1.411       .  S
C905        C906   1.205       .  T
C907       C1214   1.206       .  T
C908       C1213   1.204       .  T
C908        C909   1.410       .  S
C909        C910   1.204       .  T
C912        C913   1.409       .  S
C913        C914   1.203       .  T
C915        C916   1.204       .  T
C916        C917   1.411       .  S
C917        C918   1.205       .  T
Zn919       O923   1.906       .  S
Zn919       O924   1.996       .  S
Zn919       O928   2.004       .  S
Zn919       O935   2.076       .  S
Zn920       O923   1.906       .  S
Zn920       O925   1.993       .  S
Zn920       O927   2.008       .  S
Zn920       O931   2.070       .  S
Zn921       O923   1.905       .  S
Zn921       O926   1.988       .  S
Zn921       O929   2.001       .  S
Zn921       O932   2.081       .  S
Zn922       O923   1.831       .  S
Zn922       O930   1.949       .  S
Zn922       O933   1.945       .  S
Zn922       O934   1.938       .  S
O924        C936   1.274       .  A
O925        C937   1.274       .  A
O926        C938   1.274       .  A
O927        C936   1.276       .  A
O928        C938   1.275       .  A
O929        C937   1.275       .  A
O930        C939   1.261       .  A
O931        C940   1.279       .  A
O932        C939   1.279       .  A
O933        C940   1.262       .  A
O934        C941   1.261       .  A
O935        C941   1.279       .  A
C936        C961   1.459       .  S
C937        C964   1.457       .  S
C938        C962   1.455       .  S
C939       C1224   1.433       .  S
C940       C1217   1.428       .  S
C941       C1213   1.428   1_565  S
Zn942       O947   2.078       .  S
Zn942       O958   2.000       .  S
Zn943       O946   1.837       .  S
Zn944       O952   2.077       .  S
Zn944       O955   1.990       .  S
Zn945       O956   2.080       .  S
O947        C959   1.279       .  A
O948        C960   1.260       .  A
O949        C961   1.275       .  A
O950        C959   1.261       .  A
O951        C961   1.275       .  A
O952        C960   1.278       .  A
O953        C962   1.275       .  A
O954        C963   1.261   1_455  A
O955        C962   1.274       .  A
O956        C963   1.279       .  A
O957        C964   1.275       .  A
O958        C964   1.275       .  A
C959       C1212   1.431       .  S
C960       C1204   1.429       .  S
C963       C1205   1.434       .  S
C965        H966   1.117       .  S
C965        C971   1.515       .  S
C965        C970   1.514       .  S
C965        C969   1.515       .  S
C967        H968   1.110       .  S
C967        C973   1.608       .  S
C967        C972   1.607       .  S
C967        C974   1.606       .  S
C969        C972   1.374       .  D
C969       C1177   1.437       .  S
C970        C973   1.375       .  D
C970       C1184   1.442       .  S
C971        C974   1.374       .  D
C971       C1188   1.437       .  S
C972       C1194   1.552       .  S
C973       C1190   1.551       .  S
C974       C1198   1.553       .  S
C975        H976   1.110       .  S
C975        C980   1.604   1_455  S
C979        C982   1.374       .  D
C979       C1197   1.552       .  S
C980        C983   1.373       .  D
C980       C1193   1.550       .  S
C981        C984   1.373       .  D
C981       C1189   1.550       .  S
C982       C1176   1.440       .  S
C983       C1168   1.439       .  S
C984       C1172   1.439       .  S
C985        H986   1.117       .  S
C985        C991   1.514       .  S
C985        C990   1.514       .  S
C985        C989   1.514       .  S
C987        H988   1.110       .  S
C987        C993   1.607       .  S
C987        C992   1.606       .  S
C987        C994   1.606       .  S
C989        C992   1.374       .  D
C989       C1141   1.437       .  S
C990        C993   1.376       .  D
C990       C1149   1.440       .  S
C991        C994   1.373       .  D
C991       C1148   1.436       .  S
C992       C1154   1.550       .  S
C993       C1162   1.551       .  S
C994       C1158   1.551       .  S
C995        H996   1.116       .  S
C995       C1001   1.514       .  S
C995       C1000   1.514       .  S
C995        C999   1.514       .  S
C997        H998   1.110       .  S
C997       C1003   1.605       .  S
C997       C1002   1.605       .  S
C997       C1004   1.606       .  S
C999       C1002   1.375       .  D
C999       C1216   1.439       .  S
C1000      C1003   1.372       .  D
C1000      C1220   1.437       .  S
C1001      C1004   1.375       .  D
C1001      C1221   1.440       .  S
C1002      C1153   1.549       .  S
C1003      C1157   1.549       .  S
C1004      C1161   1.550       .  S
Zn1005     O1009   1.937       .  S
Zn1005     O1010   1.999       .  S
Zn1005     O1014   2.029       .  S
Zn1005     O1021   2.003       .  S
Zn1006     O1009   1.938       .  S
Zn1006     O1011   2.028       .  S
Zn1006     O1013   2.005       .  S
Zn1006     O1017   2.005       .  S
Zn1007     O1009   1.933       .  S
Zn1007     O1012   1.904       .  S
Zn1007     O1015   1.916       .  S
Zn1007     O1018   1.909       .  S
Zn1008     O1009   1.937       .  S
Zn1008     O1016   2.032       .  S
Zn1008     O1019   2.008       .  S
Zn1008     O1020   2.005       .  S
O1010      C1022   1.270       .  A
O1011      C1023   1.279       .  A
O1012      C1024   1.256       .  A
O1013      C1022   1.270       .  A
O1014      C1024   1.278       .  A
O1015      C1023   1.257       .  A
O1016      C1025   1.279       .  A
O1017      C1026   1.270       .  A
O1018      C1025   1.257       .  A
O1019      C1026   1.271       .  A
O1020      C1027   1.270       .  A
O1021      C1027   1.270       .  A
C1022      C1144   1.432       .  S
C1023      C1045   1.445       .  S
C1024      C1049   1.444       .  S
C1025      C1046   1.445       .  S
C1026      C1152   1.434       .  S
C1027      C1145   1.432   1_655  S
Zn1028     O1032   1.935       .  S
Zn1028     O1033   2.035       .  S
Zn1028     O1044   2.005       .  S
Zn1029     O1032   1.923       .  S
Zn1029     O1036   1.902       .  S
Zn1030     O1038   2.029       .  S
Zn1030     O1041   1.996       .  S
Zn1031     O1042   2.030       .  S
O1033      C1045   1.278       .  A
O1034      C1046   1.256       .  A
O1035      C1047   1.271       .  A
O1036      C1045   1.256       .  A
O1037      C1047   1.270   1_545  A
O1038      C1046   1.278       .  A
O1039      C1048   1.271       .  A
O1040      C1049   1.256       .  A
O1041      C1048   1.269       .  A
O1042      C1049   1.279       .  A
O1043      C1050   1.270       .  A
O1044      C1050   1.271       .  A
C1047      C1181   1.436       .  S
C1048      C1180   1.430       .  S
C1050      C1185   1.431       .  S
C1051      H1052   1.117       .  S
C1051      C1057   1.515       .  S
C1051      C1056   1.515       .  S
C1051      C1055   1.515       .  S
C1053      H1054   1.110       .  S
C1053      C1059   1.606       .  S
C1053      C1058   1.605       .  S
C1053      C1060   1.607       .  S
C1055      C1058   1.375       .  D
C1055      C1209   1.439       .  S
C1056      C1059   1.374       .  D
C1056      C1201   1.437       .  S
C1057      C1060   1.376       .  D
C1057      C1208   1.442       .  S
C1058      C1138   1.551       .  S
C1059      C1133   1.552       .  S
C1060      C1130   1.552       .  S
C1061      H1062   1.116       .  S
C1061      C1066   1.516       .  S
C1063      H1064   1.110       .  S
C1063      C1070   1.605   1_455  S
C1065      C1068   1.376       .  D
C1065      C1117   1.443       .  S
C1066      C1069   1.374       .  D
C1066      C1128   1.438       .  S
C1067      C1070   1.376       .  D
C1067      C1124   1.442       .  S
C1068      C1134   1.552       .  S
C1069      C1137   1.552       .  S
C1070      C1129   1.552       .  S
Zn1071     O1075   1.928       .  S
Zn1071     O1076   1.932   1_556  S
Zn1071     O1080   1.924   1_556  S
Zn1071     O1087   1.927   1_556  S
Zn1072     O1075   1.938       .  S
Zn1072     O1077   2.005       .  S
Zn1072     O1079   2.043       .  S
Zn1072     O1083   2.009       .  S
Zn1073     O1075   1.938       .  S
Zn1073     O1078   2.022       .  S
Zn1073     O1081   2.003       .  S
Zn1073     O1084   1.998       .  S
Zn1074     O1075   1.939       .  S
Zn1074     O1082   2.012       .  S
Zn1074     O1085   2.002       .  S
Zn1074     O1086   2.031       .  S
O1076      C1088   1.260   1_554  A
O1077      C1089   1.270       .  A
O1078      C1090   1.277       .  A
O1079      C1088   1.280       .  A
O1080      C1090   1.260   1_554  A
O1081      C1089   1.271       .  A
O1082      C1091   1.271       .  A
O1083      C1092   1.272       .  A
O1084      C1091   1.268       .  A
O1085      C1092   1.270       .  A
O1086      C1093   1.279   1_556  A
O1087      C1093   1.259       .  A
C1088      C1115   1.454   1_556  S
C1089      C1173   1.433       .  S
C1091      C1169   1.433       .  S
C1092      C1165   1.433       .  S
Zn1094     O1098   1.943       .  S
Zn1094     O1099   2.038       .  S
Zn1094     O1103   2.014       .  S
Zn1094     O1110   2.012       .  S
Zn1095     O1098   1.940       .  S
Zn1095     O1100   1.933       .  S
Zn1095     O1102   1.940       .  S
Zn1095     O1106   1.940       .  S
Zn1096     O1098   1.945       .  S
Zn1096     O1101   2.012       .  S
Zn1096     O1104   2.037       .  S
Zn1096     O1107   2.002       .  S
Zn1097     O1098   1.944       .  S
Zn1097     O1105   2.002       .  S
Zn1097     O1108   2.037       .  S
Zn1097     O1109   2.013       .  S
O1099      C1111   1.280       .  A
O1100      C1112   1.260       .  A
O1101      C1113   1.270       .  A
O1102      C1111   1.261       .  A
O1103      C1113   1.272       .  A
O1104      C1112   1.279       .  A
O1105      C1114   1.270       .  A
O1106      C1115   1.261       .  A
O1107      C1114   1.271       .  A
O1108      C1115   1.279       .  A
O1109      C1116   1.272       .  A
O1110      C1116   1.270       .  A
C1113      C1121   1.437       .  S
C1114      C1125   1.432       .  S
C1116      C1120   1.438       .  S
C1117      C1118   1.207       .  T
C1118      C1119   1.417       .  S
C1119      C1120   1.209       .  T
C1121      C1122   1.209       .  T
C1122      C1123   1.417       .  S
C1123      C1124   1.207       .  T
C1125      C1126   1.206       .  T
C1126      C1127   1.413       .  S
C1127      C1128   1.205       .  T
C1129      C1130   1.394       .  D
C1129      H1131   1.080       .  S
C1130      H1132   1.080       .  S
C1133      C1134   1.395       .  D
C1133      H1135   1.080       .  S
C1134      H1136   1.080       .  S
C1137      C1138   1.394       .  D
C1137      H1139   1.080       .  S
C1138      H1140   1.079       .  S
C1141      C1142   1.204       .  T
C1142      C1143   1.411       .  S
C1146      C1147   1.410       .  S
C1147      C1148   1.203       .  T
C1149      C1150   1.206       .  T
C1150      C1151   1.415       .  S
C1151      C1152   1.207       .  T
C1153      H1155   1.078       .  S
C1154      H1156   1.080       .  S
C1157      H1159   1.077       .  S
C1158      H1160   1.082       .  S
C1161      C1162   1.394       .  D
C1161      H1163   1.078       .  S
C1162      H1164   1.079       .  S
C1165      C1166   1.206       .  T
C1166      C1167   1.413       .  S
C1167      C1168   1.205       .  T
C1169      C1170   1.206       .  T
C1170      C1171   1.412       .  S
C1171      C1172   1.205       .  T
C1173      C1174   1.206       .  T
C1174      C1175   1.413       .  S
C1175      C1176   1.205       .  T
C1177      C1178   1.204       .  T
C1178      C1179   1.411       .  S
C1179      C1180   1.205       .  T
C1181      C1182   1.208       .  T
C1182      C1183   1.415       .  S
C1183      C1184   1.207       .  T
C1185      C1186   1.205       .  T
C1186      C1187   1.411       .  S
C1187      C1188   1.204       .  T
C1189      C1190   1.395       .  D
C1189      H1191   1.079       .  S
C1190      H1192   1.079       .  S
C1193      C1194   1.395       .  D
C1193      H1195   1.079       .  S
C1194      H1196   1.080       .  S
C1197      C1198   1.396       .  D
C1197      H1199   1.079       .  S
C1198      H1200   1.080       .  S
C1201      C1202   1.204       .  T
C1202      C1203   1.412       .  S
C1203      C1204   1.205       .  T
C1205      C1206   1.208       .  T
C1206      C1207   1.416       .  S
C1207      C1208   1.207       .  T
C1209      C1210   1.206       .  T
C1210      C1211   1.413       .  S
C1211      C1212   1.206       .  T
C1214      C1215   1.414       .  S
C1215      C1216   1.205       .  T
C1218      C1219   1.411       .  S
C1219      C1220   1.204       .  T
C1221      C1222   1.206       .  T
C1222      C1223   1.415       .  S
C1223      C1224   1.207       .  T
