geometry optimzed in LAMMPS
_audit_creation_date              2020-11-30 
_audit_creation_method            'lammps2cif' 
_symmetry_space_group_name_H-M    'P1' 
_symmetry_Int_Tables_number       1 
_symmetry_cell_setting            triclinic 
loop_ 
_symmetry_equiv_pos_as_xyz 
  x,y,z 
_cell_length_a                    35.69079862 
_cell_length_b                    35.21848913827785 
_cell_length_c                    23.63618344289623 
_cell_angle_alpha                 88.66765449161556 
_cell_angle_beta                  88.53476523085658 
_cell_angle_gamma                 90.36690545912244 
loop_ 
_atom_site_label 
_atom_site_type_symbol 
_atom_site_fract_x 
_atom_site_fract_y 
_atom_site_fract_z 
_atom_site_charge 
O1          O  0.48572254  0.43459453  0.44274398    -0.79200
O2          O  0.07595310  0.04654795  0.05708148    -0.79200
O3          O  0.05714762  0.48323775  0.42398061    -0.79200
O4          O  0.01780771  0.43309424  0.06694041    -0.79200
O5          O  0.06927966  0.04304188  0.44204314    -0.79300
O6          O  0.45840563  0.43189264  0.05192026    -0.79200
O7          O  0.07177601  0.48542057  0.07374735    -0.79200
O8          O  0.99660035  0.46448431  0.36063216    -0.79200
C9          C  0.99148008  0.43348051  0.38836964     1.10500
C10         C  0.09059435  0.51565897  0.07492728     1.10400
C11         C  0.07892124  0.01195695  0.41917167     1.10500
C12         C  0.48735827  0.41508645  0.06854582     1.10400
O13         O  0.43448922  0.50910597  0.04832235    -0.79200
O14         O  0.99155102  0.07119988  0.45566391    -0.79300
O15         O  0.44446046  0.00394585  0.42060295    -0.79200
O16         O  0.52152518  0.03718958  0.13105432    -0.79200
O17         O  0.99804040  0.07191786  0.06402048    -0.79200
O18         O  0.41520898  0.45838374  0.46930400    -0.79200
O19         O  0.46397801  0.98537573  0.12118604    -0.79200
O20         O  0.50971256  0.04063085  0.38260085    -0.79200
Co21       Co  0.46158390  0.47547494  0.49572558     1.51500
Co22       Co  0.03199367  0.05582426  0.00479246     1.51700
Co23       Co  0.00225763  0.99176038  0.42847653     1.51600
Co24       Co  0.51833325  0.48570614  0.09286698     1.51500
O25         O  0.50854419  0.50406901  0.51178166    -1.41100
C26         C  0.43467573  0.50045831  0.10063911     1.10400
C27         C  0.99930702  0.07144238  0.40402976     1.10500
C28         C  0.41421697  0.98403582  0.43131212     1.10500
C29         C  0.50698958  0.06827471  0.11446891     1.10400
C30         C  0.99784470  0.28657061  0.27520714     0.03200
C31         C  0.00001020  0.28313177  0.21528315     0.03200
C32         C  0.00468345  0.24714467  0.19210772    -0.17300
C33         C  0.00444289  0.21398972  0.22569593     0.03200
C34         C  0.99904563  0.21666690  0.28496730     0.03200
C35         C  0.99748469  0.25289791  0.30893019    -0.17300
H36         H  0.99534857  0.25483050  0.35451463     0.05200
H37         H  0.00689392  0.24464662  0.14650745     0.05200
C38         C  0.28534697  0.00383001  0.28710479     0.03200
C39         C  0.29022142  0.00364178  0.22719269     0.03200
C40         C  0.25787699  0.00483562  0.19401105    -0.17300
C41         C  0.22157961  0.00757670  0.21829995     0.03200
C42         C  0.21710848  0.00755722  0.27809520     0.03200
C43         C  0.24906480  0.00618920  0.31120422    -0.15900
H44         H  0.24558851  0.00654614  0.35695050     0.05200
H45         H  0.26094829  0.00403518  0.14828252     0.05200
C46         C  0.18923286  0.01015191  0.17930804    -0.04400
C47         C  0.17555935  0.47715169  0.15415641    -0.01500
C48         C  0.14524650  0.47918716  0.11690431     0.03500
C49         C  0.12789697  0.01463218  0.10396050    -0.04400
C50         C  0.14491164  0.04815518  0.12404635    -0.01500
C51         C  0.17536523  0.04578991  0.16129062     0.03500
C52         C  0.19392459  0.44108141  0.16456903     0.38100
C53         C  0.13165575  0.08537748  0.10660901     0.38100
C54         C  0.19382734  0.08029121  0.17834521     0.36500
C55         C  0.13305137  0.44441590  0.09094801     0.36600
N56         N  0.20861193  0.10818823  0.19036154    -0.38300
N57         N  0.12362966  0.41649022  0.07055573    -0.38300
N58         N  0.12135732  0.11518861  0.09274385    -0.37700
N59         N  0.20887268  0.41238110  0.17183365    -0.37700
C60         C  0.11456251  0.01065763  0.38259270    -0.04400
C61         C  0.13361672  0.54472191  0.36412282    -0.01500
C62         C  0.16674104  0.54342308  0.33006978     0.03500
C63         C  0.17990710  0.00877518  0.30900756    -0.04400
C64         C  0.16153754  0.97481204  0.32706847    -0.01500
C65         C  0.12978573  0.97556189  0.36445141     0.03500
C66         C  0.12012603  0.58190437  0.37946114     0.38100
C67         C  0.17688407  0.93862857  0.31033077     0.38100
C68         C  0.11429876  0.93973246  0.38603607     0.36500
C69         C  0.18904074  0.57773558  0.32062525     0.36600
N70         N  0.10220644  0.91100256  0.40311148    -0.38300
N71         N  0.20697304  0.60511913  0.31500654    -0.38300
N72         N  0.18894997  0.90948235  0.29791456    -0.37700
N73         N  0.11066413  0.61225773  0.39041909    -0.37700
C74         C  0.39912578  0.50393735  0.13655033    -0.04400
C75         C  0.39205881  0.47921667  0.18419396    -0.01500
C76         C  0.35556911  0.47608537  0.20884661     0.03500
C77         C  0.32831158  0.00403305  0.19746919    -0.04400
C78         C  0.33693927  0.03183954  0.15478623    -0.01500
C79         C  0.36995218  0.02907681  0.12075472     0.03500
C80         C  0.42139084  0.45566950  0.20751390     0.38100
C81         C  0.31169540  0.06335821  0.14502914     0.38100
C82         C  0.37179335  0.05043948  0.06765270     0.36500
C83         C  0.34526766  0.44136993  0.23959749     0.36600
N84         N  0.37167738  0.06654956  0.02443901    -0.38300
N85         N  0.33778671  0.41268014  0.26208664    -0.38300
N86         N  0.29178433  0.08866513  0.13739401    -0.37700
N87         N  0.44461566  0.43712466  0.22710230    -0.37700
C88         C  0.31709057  0.00017405  0.32682041    -0.04400
C89         C  0.31942313  0.46759259  0.36254308    -0.01500
C90         C  0.35054786  0.46235549  0.39733323     0.03500
C91         C  0.37868831  0.99102115  0.39990889    -0.04400
C92         C  0.37252714  0.02615782  0.37132685    -0.01500
C93         C  0.34310608  0.03000790  0.33269851     0.03500
C94         C  0.29001940  0.43878555  0.36281195     0.38100
C95         C  0.39279804  0.05976292  0.38746670     0.38100
C96         C  0.33844746  0.06539921  0.30116138     0.36500
C97         C  0.35227112  0.42750597  0.43108221     0.36600
N98         N  0.33470311  0.09360820  0.27591737    -0.38300
N99         N  0.35229269  0.39968041  0.45808567    -0.38300
N100        N  0.40760426  0.08705604  0.40193839    -0.37700
N101        N  0.26664300  0.41584320  0.36354483    -0.37700
C102        C  0.00613584  0.17655624  0.19687722    -0.04400
C103        C  0.47778300  0.16706220  0.15911965    -0.01500
C104        C  0.47676460  0.13088841  0.13550013     0.03500
C105        C  0.00380674  0.10292451  0.14969532    -0.04400
C106        C  0.03165266  0.11218429  0.18883215    -0.01500
C107        C  0.03390108  0.14940925  0.20990937     0.03500
C108        C  0.44885810  0.19441061  0.14493668     0.38100
C109        C  0.05860108  0.08401744  0.20681112     0.38100
C110        C  0.06580202  0.16031549  0.24282792     0.36500
C111        C  0.44811020  0.12367795  0.09464509     0.36600
N112        N  0.09156986  0.16897051  0.26846091    -0.38300
N113        N  0.42575383  0.11963200  0.06076854    -0.38300
N114        N  0.07989148  0.06160957  0.22213625    -0.37700
N115        N  0.42582224  0.21608646  0.13363639    -0.37700
C116        C  0.99993403  0.10840214  0.37316996    -0.04400
C117        C  0.47690886  0.11466959  0.32663742    -0.01500
C118        C  0.47044702  0.15211139  0.30771018     0.03500
C119        C  0.99551912  0.18153627  0.32183651    -0.04400
C120        C  0.02016890  0.17496676  0.36681464    -0.01500
C121        C  0.01950779  0.13957531  0.39581176     0.03500
C122        C  0.45988125  0.08309579  0.29826626     0.38100
C123        C  0.04697929  0.20378458  0.38244676     0.38100
C124        C  0.03918366  0.13554293  0.44863314     0.36500
C125        C  0.43661198  0.16057885  0.27750576     0.36600
N126        N  0.05452372  0.13277806  0.49107967    -0.38300
N127        N  0.40879868  0.16689717  0.25512040    -0.38300
N128        N  0.06850191  0.22668309  0.39476509    -0.37700
N129        N  0.44690795  0.05791718  0.27476787    -0.37700
C130        C  0.48623965  0.37653750  0.09557589    -0.04400
C131        C  0.45596476  0.36492030  0.13166086    -0.01500
C132        C  0.46081475  0.33530003  0.17206746     0.03500
C133        C  0.99526953  0.31567381  0.17432543    -0.04400
C134        C  0.02324858  0.32362285  0.13194168    -0.01500
C135        C  0.01852369  0.35367436  0.09260537     0.03500
C136        C  0.41948502  0.38229026  0.12598094     0.38100
C137        C  0.05732059  0.30133069  0.12893645     0.38100
C138        C  0.04604111  0.35988367  0.04697604     0.36500
C139        C  0.42983495  0.32449813  0.21006133     0.36600
N140        N  0.06762901  0.36435737  0.01002705    -0.38300
N141        N  0.40479155  0.31632797  0.24004445    -0.38300
N142        N  0.08441900  0.28350302  0.12641190    -0.37700
N143        N  0.39016241  0.39554860  0.12060081    -0.37700
C144        C  0.99325968  0.39600864  0.35935008    -0.04400
C145        C  0.46935374  0.36553310  0.37738381    -0.01500
C146        C  0.46885528  0.33127718  0.34735146     0.03500
C147        C  0.99603309  0.32452690  0.30390036    -0.04400
C148        C  0.02273950  0.35354008  0.29057993    -0.01500
C149        C  0.01919796  0.38993891  0.31416552     0.03500
C150        C  0.44565082  0.36853361  0.42780271     0.38100
C151        C  0.05648254  0.34511921  0.25804203     0.38100
C152        C  0.04345126  0.42053573  0.29276443     0.36500
C153        C  0.44010682  0.30308403  0.36187732     0.36600
N154        N  0.06247767  0.44489950  0.27472421    -0.38300
N155        N  0.41723834  0.28065321  0.37384864    -0.38300
N156        N  0.08436210  0.33905950  0.23398784    -0.37700
N157        N  0.42761798  0.36989940  0.46905990    -0.37700
O158        O  0.48572122  0.43459821  0.94274838    -0.79200
O159        O  0.07595472  0.04654730  0.55707691    -0.79200
O160        O  0.05714651  0.48323960  0.92398071    -0.79200
O161        O  0.01780661  0.43309218  0.56694002    -0.79200
O162        O  0.06928061  0.04304338  0.94204686    -0.79300
O163        O  0.45840583  0.43188678  0.55191693    -0.79200
O164        O  0.07177383  0.48541801  0.57374617    -0.79200
O165        O  0.99659887  0.46448606  0.86063308    -0.79200
C166        C  0.99147906  0.43348240  0.88837130     1.10500
C167        C  0.09059262  0.51565569  0.57492926     1.10400
C168        C  0.07892382  0.01195889  0.91917556     1.10500
C169        C  0.48735889  0.41508199  0.56854421     1.10400
O170        O  0.43448677  0.50909974  0.54831900    -0.79200
O171        O  0.99155056  0.07119796  0.95566403    -0.79300
O172        O  0.44446364  0.00394004  0.92059650    -0.79200
O173        O  0.52153072  0.03719188  0.63105525    -0.79200
O174        O  0.99804415  0.07192039  0.56402072    -0.79200
O175        O  0.41520836  0.45838979  0.96930925    -0.79200
O176        O  0.46397955  0.98538174  0.62118985    -0.79200
O177        O  0.50971536  0.04062897  0.88260027    -0.79200
Co178      Co  0.46158432  0.47548011  0.99572877     1.51500
Co179      Co  0.03199481  0.05582483  0.50479038     1.51700
Co180      Co  0.00226090  0.99175894  0.92847602     1.51600
Co181      Co  0.51833081  0.48570257  0.59286562     1.51500
O182        O  0.50854562  0.50407277  0.01178297    -1.41100
C183        C  0.43467316  0.50045252  0.60063587     1.10400
C184        C  0.99930805  0.07144114  0.90403034     1.10500
C185        C  0.41422022  0.98402926  0.93130331     1.10500
C186        C  0.50699683  0.06827802  0.61447089     1.10400
C187        C  0.99784703  0.28657095  0.77521147     0.03200
C188        C  0.00001386  0.28313186  0.71528720     0.03200
C189        C  0.00468962  0.24714489  0.69211243    -0.17300
C190        C  0.00444875  0.21398989  0.72570055     0.03200
C191        C  0.99904940  0.21666710  0.78497185     0.03200
C192        C  0.99748701  0.25289817  0.80893465    -0.17300
H193        H  0.99534954  0.25483062  0.85451956     0.05200
H194        H  0.00690161  0.24464681  0.64651176     0.05200
C195        C  0.28535172  0.00383287  0.78709403     0.03200
C196        C  0.29022439  0.00364497  0.72719767     0.03200
C197        C  0.25787640  0.00483913  0.69401824    -0.17300
C198        C  0.22157566  0.00758028  0.71830477     0.03200
C199        C  0.21710629  0.00756299  0.77808471     0.03200
C200        C  0.24906674  0.00619423  0.81119119    -0.15900
H201        H  0.24559361  0.00655194  0.85690473     0.05200
H202        H  0.26094580  0.00403785  0.64831908     0.05200
C203        C  0.18923241  0.01015413  0.67930622    -0.04400
C204        C  0.17555316  0.47714686  0.65417081    -0.01500
C205        C  0.14523908  0.47918107  0.61692087     0.03500
C206        C  0.12789827  0.01463273  0.60395676    -0.04400
C207        C  0.14491016  0.04815614  0.62404623    -0.01500
C208        C  0.17536302  0.04579170  0.66129162     0.03500
C209        C  0.19391424  0.44107547  0.66459274     0.38100
C210        C  0.13165217  0.08537822  0.60661105     0.38100
C211        C  0.19382241  0.08029377  0.67834940     0.36500
C212        C  0.13303682  0.44440636  0.59098154     0.36600
N213        N  0.20860472  0.10819169  0.69036730    -0.38300
N214        N  0.12360940  0.41647749  0.57060424    -0.38300
N215        N  0.12135187  0.11518903  0.59274743    -0.37700
N216        N  0.20885867  0.41237388  0.67186371    -0.37700
C217        C  0.11456556  0.01066079  0.88259737    -0.04400
C218        C  0.13360954  0.54472292  0.86410808    -0.01500
C219        C  0.16673519  0.54342333  0.83005865     0.03500
C220        C  0.17990810  0.00878054  0.80900803    -0.04400
C221        C  0.16153846  0.97481707  0.82706607    -0.01500
C222        C  0.12978740  0.97556577  0.86445055     0.03500
C223        C  0.12011089  0.58190607  0.87942706     0.38100
C224        C  0.17688380  0.93863413  0.81032381     0.38100
C225        C  0.11430018  0.93973560  0.88603216     0.36500
C226        C  0.18903098  0.57773745  0.82060544     0.36600
N227        N  0.10220779  0.91100517  0.90310525    -0.38300
N228        N  0.20695997  0.60512274  0.81498057    -0.38300
N229        N  0.18894924  0.90948844  0.79790397    -0.37700
N230        N  0.11064279  0.61226035  0.89036802    -0.37700
C231        C  0.39912349  0.50393260  0.63654770    -0.04400
C232        C  0.39205770  0.47921428  0.68419432    -0.01500
C233        C  0.35556882  0.47608454  0.70885032     0.03500
C234        C  0.32831165  0.00403578  0.69746691    -0.04400
C235        C  0.33693929  0.03184368  0.65478694    -0.01500
C236        C  0.36995298  0.02908240  0.62075670     0.03500
C237        C  0.42138994  0.45566705  0.70751362     0.38100
C238        C  0.31169601  0.06336335  0.64503274     0.38100
C239        C  0.37179423  0.05044522  0.56765481     0.36500
C240        C  0.34526825  0.44137078  0.73960606     0.36600
N241        N  0.37167794  0.06655549  0.52444123    -0.38300
N242        N  0.33778865  0.41268194  0.76209894    -0.38300
N243        N  0.29178594  0.08867150  0.63740061    -0.37700
N244        N  0.44461496  0.43712215  0.72710132    -0.37700
C245        C  0.31709192  0.00017516  0.82681676    -0.04400
C246        C  0.31942200  0.46759635  0.86254935    -0.01500
C247        C  0.35054592  0.46236100  0.89734166     0.03500
C248        C  0.37869198  0.99101574  0.89989908    -0.04400
C249        C  0.37253126  0.02615380  0.87132068    -0.01500
C250        C  0.34310999  0.03000663  0.83269367     0.03500
C251        C  0.29001915  0.43878850  0.86281873     0.38100
C252        C  0.39280284  0.05975774  0.88746315     0.38100
C253        C  0.33845489  0.06539792  0.80115537     0.36500
C254        C  0.35226761  0.42751412  0.93109703     0.36600
N255        N  0.33471400  0.09360687  0.77590987    -0.38300
N256        N  0.35228788  0.39969091  0.95810603    -0.38300
N257        N  0.40760943  0.08705001  0.90193721    -0.37700
N258        N  0.26664377  0.41584515  0.86355228    -0.37700
C259        C  0.00614165  0.17655638  0.69688149    -0.04400
C260        C  0.47779206  0.16706478  0.65912542    -0.01500
C261        C  0.47677249  0.13089085  0.63550655     0.03500
C262        C  0.00381112  0.10292521  0.64969751    -0.04400
C263        C  0.03165660  0.11218348  0.68883592    -0.01500
C264        C  0.03390536  0.14940794  0.70991527     0.03500
C265        C  0.44886876  0.19441439  0.64493957     0.38100
C266        C  0.05860352  0.08401526  0.70681519     0.38100
C267        C  0.06580476  0.16031193  0.74283866     0.36500
C268        C  0.44811561  0.12367949  0.59465556     0.36600
N269        N  0.09157140  0.16896456  0.76847595    -0.38300
N270        N  0.42575676  0.11963218  0.56078316    -0.38300
N271        N  0.07989274  0.06160621  0.72214029    -0.37700
N272        N  0.42583433  0.21609123  0.63363680    -0.37700
C273        C  0.99993561  0.10840148  0.87317186    -0.04400
C274        C  0.47691201  0.11466861  0.82663811    -0.01500
C275        C  0.47044979  0.15211081  0.80771294     0.03500
C276        C  0.99552140  0.18153636  0.82184063    -0.04400
C277        C  0.02016988  0.17496639  0.86682043    -0.01500
C278        C  0.01950880  0.13957429  0.89581573     0.03500
C279        C  0.45988639  0.08309508  0.79826359     0.38100
C280        C  0.04697904  0.20378439  0.88245626     0.38100
C281        C  0.03918388  0.13554080  0.94863755     0.36500
C282        C  0.43661613  0.16057796  0.77750505     0.36600
N283        N  0.05452336  0.13277519  0.99108447    -0.38300
N284        N  0.40880390  0.16689587  0.75511650    -0.38300
N285        N  0.06850042  0.22668323  0.89477783    -0.37700
N286        N  0.44691454  0.05791674  0.77476283    -0.37700
C287        C  0.48624182  0.37653404  0.59557837    -0.04400
C288        C  0.45596716  0.36491678  0.63166375    -0.01500
C289        C  0.46081823  0.33529849  0.67207339     0.03500
C290        C  0.99527207  0.31567336  0.67432858    -0.04400
C291        C  0.02325063  0.32362252  0.63194410    -0.01500
C292        C  0.01852447  0.35367297  0.59260649     0.03500
C293        C  0.41948657  0.38228473  0.62598125     0.38100
C294        C  0.05732332  0.30133142  0.62893896     0.38100
C295        C  0.04604133  0.35988230  0.54697608     0.36500
C296        C  0.42983790  0.32449555  0.71006574     0.36600
N297        N  0.06762884  0.36435612  0.51002656    -0.38300
N298        N  0.40479421  0.31632479  0.74004796    -0.38300
N299        N  0.08442207  0.28350431  0.62641466    -0.37700
N300        N  0.39016350  0.39554162  0.62059911    -0.37700
C301        C  0.99325931  0.39601016  0.85935251    -0.04400
C302        C  0.46935197  0.36553534  0.87739036    -0.01500
C303        C  0.46885455  0.33127866  0.84735970     0.03500
C304        C  0.99603436  0.32452764  0.80390411    -0.04400
C305        C  0.02274062  0.35354104  0.79058403    -0.01500
C306        C  0.01919882  0.38993995  0.81416967     0.03500
C307        C  0.44564737  0.36853719  0.92780721     0.38100
C308        C  0.05648357  0.34512047  0.75804556     0.38100
C309        C  0.04345376  0.42053628  0.79277147     0.36500
C310        C  0.44010560  0.30308567  0.86188464     0.36600
N311        N  0.06248140  0.44489979  0.77473344    -0.38300
N312        N  0.41723664  0.28065529  0.87385566    -0.38300
N313        N  0.08436295  0.33906112  0.73399065    -0.37700
N314        N  0.42761331  0.36990416  0.96906309    -0.37700
O315        O  0.48571805  0.93459671  0.44274933    -0.79200
O316        O  0.07595706  0.54654917  0.05707847    -0.79200
O317        O  0.05714386  0.98323802  0.42397983    -0.79200
O318        O  0.01780565  0.93309300  0.06694006    -0.79200
O319        O  0.06928279  0.54304156  0.44204529    -0.79300
O320        O  0.45840465  0.93188554  0.05191638    -0.79200
O321        O  0.07177235  0.98541946  0.07374979    -0.79200
O322        O  0.99659558  0.96448554  0.36063367    -0.79200
C323        C  0.99147693  0.93348170  0.38837172     1.10500
C324        C  0.09059045  0.01565785  0.07493084     1.10400
C325        C  0.07892488  0.51195685  0.41917367     1.10500
C326        C  0.48735833  0.91508163  0.06854339     1.10400
O327        O  0.43448369  0.00909809  0.04831723    -0.79200
O328        O  0.99155415  0.57119929  0.45566252    -0.79300
O329        O  0.44446426  0.50394234  0.42059855    -0.79200
O330        O  0.52153403  0.53719185  0.13105554    -0.79200
O331        O  0.99804588  0.57192138  0.06402143    -0.79200
O332        O  0.41520518  0.95838862  0.46931040    -0.79200
O333        O  0.46398282  0.48538109  0.12118995    -0.79200
O334        O  0.50971671  0.54062961  0.38259995    -0.79200
Co335      Co  0.46158113  0.97547917  0.49572938     1.51500
Co336      Co  0.03199725  0.55582631  0.00479128     1.51700
Co337      Co  0.00226117  0.49175911  0.42847558     1.51600
Co338      Co  0.51832858  0.98570315  0.09286620     1.51500
O339        O  0.50854273  0.00407147  0.51178326    -1.41100
C340        C  0.43467099  0.00045259  0.10063472     1.10400
C341        C  0.99931141  0.57144175  0.40402871     1.10500
C342        C  0.41422104  0.48403149  0.43130624     1.10500
C343        C  0.50700046  0.56827840  0.11447232     1.10400
C344        C  0.99785825  0.78657194  0.27520923     0.03200
C345        C  0.00002316  0.78313357  0.21528478     0.03200
C346        C  0.00469941  0.74714696  0.19210887    -0.17300
C347        C  0.00446039  0.71399162  0.22569589     0.03200
C348        C  0.99906339  0.71666806  0.28496762     0.03200
C349        C  0.99750144  0.75289882  0.30893156    -0.17300
H350        H  0.99536552  0.75483075  0.35451690     0.05200
H351        H  0.00690931  0.74464934  0.14650829     0.05200
C352        C  0.28534882  0.50382823  0.28710391     0.03200
C353        C  0.29022265  0.50363771  0.22718960     0.03200
C354        C  0.25787836  0.50483129  0.19400852    -0.17300
C355        C  0.22158193  0.50757499  0.21829854     0.03200
C356        C  0.21711160  0.50755837  0.27809617     0.03200
C357        C  0.24906773  0.50618999  0.31120459    -0.15900
H358        H  0.24559176  0.50654819  0.35695566     0.05200
H359        H  0.26094935  0.50402938  0.14827546     0.05200
C360        C  0.18923451  0.51015118  0.17930795    -0.04400
C361        C  0.17555433  0.97715109  0.15416467    -0.01500
C362        C  0.14524067  0.97918555  0.11691392     0.03500
C363        C  0.12790088  0.51463343  0.10395645    -0.04400
C364        C  0.14491312  0.54815585  0.12404848    -0.01500
C365        C  0.17536426  0.54578965  0.16129733     0.03500
C366        C  0.19391715  0.94108025  0.16458347     0.38100
C367        C  0.13165755  0.58537852  0.10661206     0.38100
C368        C  0.19382127  0.58029096  0.17836363     0.36500
C369        C  0.13304259  0.94441253  0.09096524     0.36600
N370        N  0.20860131  0.60818818  0.19039036    -0.38300
N371        N  0.12361861  0.91648534  0.07057945    -0.38300
N372        N  0.12135980  0.61518996  0.09274706    -0.37700
N373        N  0.20886329  0.91237936  0.17185253    -0.37700
C374        C  0.11456682  0.51065797  0.38259610    -0.04400
C375        C  0.13360872  0.04472162  0.36411038    -0.01500
C376        C  0.16673329  0.04342249  0.33005801     0.03500
C377        C  0.17991049  0.50877701  0.30900864    -0.04400
C378        C  0.16153811  0.47481389  0.32706217    -0.01500
C379        C  0.12978688  0.47556281  0.36444641     0.03500
C380        C  0.12011278  0.08190437  0.37943688     0.38100
C381        C  0.17688240  0.43863086  0.31031769     0.38100
C382        C  0.11429837  0.43973276  0.38602576     0.36500
C383        C  0.18902818  0.07773693  0.32060216     0.36600
N384        N  0.10220509  0.41100227  0.40309727    -0.38300
N385        N  0.20695613  0.10512272  0.31497448    -0.38300
N386        N  0.18894727  0.40948527  0.29789618    -0.37700
N387        N  0.11064656  0.11225798  0.39038516    -0.37700
C388        C  0.39912256  0.00393515  0.13654812    -0.04400
C389        C  0.39205517  0.97921496  0.18419194    -0.01500
C390        C  0.35556619  0.97608673  0.20884748     0.03500
C391        C  0.32831295  0.50402985  0.19746673    -0.04400
C392        C  0.33693963  0.53183645  0.15478360    -0.01500
C393        C  0.36995334  0.52907575  0.12075383     0.03500
C394        C  0.42138601  0.95566523  0.20750985     0.38100
C395        C  0.31169398  0.56335353  0.14502562     0.38100
C396        C  0.37179317  0.55043729  0.06765066     0.36500
C397        C  0.34526294  0.94137151  0.23959741     0.36600
N398        N  0.37167712  0.56654660  0.02443631    -0.38300
N399        N  0.33778147  0.91268152  0.26208553    -0.38300
N400        N  0.29178133  0.58865924  0.13739098    -0.37700
N401        N  0.44461017  0.93711871  0.22709658    -0.37700
C402        C  0.31709328  0.50017176  0.32681736    -0.04400
C403        C  0.31942097  0.96759441  0.36254512    -0.01500
C404        C  0.35054433  0.96235885  0.39733846     0.03500
C405        C  0.37869267  0.49101704  0.39990252    -0.04400
C406        C  0.37253230  0.52615352  0.37131932    -0.01500
C407        C  0.34311101  0.53000401  0.33269148     0.03500
C408        C  0.29001950  0.93878528  0.36280973     0.38100
C409        C  0.39280452  0.55975836  0.38745687     0.38100
C410        C  0.33845484  0.56539431  0.30115071     0.36500
C411        C  0.35226664  0.92751088  0.43109132     0.36600
N412        N  0.33471287  0.59360223  0.27590307    -0.38300
N413        N  0.35228730  0.89968694  0.45809861    -0.38300
N414        N  0.40761130  0.58705163  0.40192679    -0.37700
N415        N  0.26664520  0.91584086  0.36353880    -0.37700
C416        C  0.00615185  0.67655848  0.19687575    -0.04400
C417        C  0.47780069  0.66706608  0.15912558    -0.01500
C418        C  0.47677750  0.63089069  0.13551179     0.03500
C419        C  0.00381597  0.60292614  0.14969727    -0.04400
C420        C  0.03166395  0.61218460  0.18883150    -0.01500
C421        C  0.03391546  0.64940965  0.20990761     0.03500
C422        C  0.44887788  0.69441638  0.14494055     0.38100
C423        C  0.05860957  0.58401539  0.20681173     0.38100
C424        C  0.06581745  0.66031376  0.24282548     0.36500
C425        C  0.44811421  0.62367584  0.09467249     0.36600
N426        N  0.09158617  0.66896677  0.26845791    -0.38300
N427        N  0.42574911  0.61962491  0.06081043    -0.38300
N428        N  0.07989745  0.56160542  0.22213819    -0.37700
N429        N  0.42584370  0.71609376  0.13363890    -0.37700
C430        C  0.99994173  0.60840198  0.37316952    -0.04400
C431        C  0.47691954  0.61467113  0.32663549    -0.01500
C432        C  0.47046059  0.65211367  0.30770923     0.03500
C433        C  0.99553445  0.68153674  0.32183513    -0.04400
C434        C  0.02018242  0.67496501  0.36681501    -0.01500
C435        C  0.01951733  0.63957361  0.39581256     0.03500
C436        C  0.45989177  0.58309892  0.29826082     0.38100
C437        C  0.04699407  0.70378089  0.38245000     0.38100
C438        C  0.03918979  0.63554015  0.44863682     0.36500
C439        C  0.43662662  0.66058387  0.27750390     0.36600
N440        N  0.05452673  0.63277446  0.49108587    -0.38300
N441        N  0.40881397  0.66690444  0.25511815    -0.38300
N442        N  0.06851756  0.72667793  0.39477077    -0.37700
N443        N  0.44691806  0.55792181  0.27475945    -0.37700
C444        C  0.48624265  0.87653325  0.09557518    -0.04400
C445        C  0.45596994  0.86491510  0.13166334    -0.01500
C446        C  0.46082417  0.83529791  0.17207362     0.03500
C447        C  0.99527850  0.81567494  0.17432665    -0.04400
C448        C  0.02325476  0.82362420  0.13193845    -0.01500
C449        C  0.01852557  0.85367355  0.09260001     0.03500
C450        C  0.41948814  0.88228047  0.12598209     0.38100
C451        C  0.05732823  0.80133444  0.12893017     0.38100
C452        C  0.04603940  0.85988293  0.04696566     0.36500
C453        C  0.42984589  0.82449484  0.21006962     0.36600
N454        N  0.06762444  0.86435666  0.01001287    -0.38300
N455        N  0.40480342  0.81632411  0.24005426    -0.38300
N456        N  0.08442761  0.78350849  0.12640288    -0.37700
N457        N  0.39016405  0.89553511  0.12060070    -0.37700
C458        C  0.99326076  0.89600968  0.35935277    -0.04400
C459        C  0.46935549  0.86553259  0.37738903    -0.01500
C460        C  0.46886180  0.83127611  0.34735770     0.03500
C461        C  0.99604280  0.82452796  0.30390305    -0.04400
C462        C  0.02274587  0.85354424  0.29058242    -0.01500
C463        C  0.01920121  0.88994224  0.31417009     0.03500
C464        C  0.44564842  0.86853278  0.42780345     0.38100
C465        C  0.05648783  0.84512835  0.25803859     0.38100
C466        C  0.04345388  0.92054092  0.29277347     0.36500
C467        C  0.44011475  0.80308080  0.36188007     0.36600
N468        N  0.06247967  0.94490640  0.27473709    -0.38300
N469        N  0.41724709  0.78064845  0.37384823    -0.38300
N470        N  0.08436607  0.83907312  0.23397807    -0.37700
N471        N  0.42761214  0.86989858  0.46905728    -0.37700
O472        O  0.48572248  0.93459321  0.94274352    -0.79200
O473        O  0.07595615  0.54654634  0.55708023    -0.79200
O474        O  0.05714761  0.98323902  0.92398321    -0.79200
O475        O  0.01780380  0.93309404  0.56694065    -0.79200
O476        O  0.06928252  0.54304356  0.94204457    -0.79300
O477        O  0.45840172  0.93189225  0.55192174    -0.79200
O478        O  0.07177329  0.98541896  0.57374861    -0.79200
O479        O  0.99660210  0.96448417  0.86063224    -0.79200
C480        C  0.99148225  0.93348017  0.88836925     1.10500
C481        C  0.09059178  0.01565735  0.57492730     1.10400
C482        C  0.07892364  0.51195870  0.91917240     1.10500
C483        C  0.48735450  0.91508593  0.56854630     1.10400
O484        O  0.43448610  0.00910613  0.54832188    -0.79200
O485        O  0.99155422  0.57120170  0.95566333    -0.79300
O486        O  0.44446340  0.50394735  0.92060226    -0.79200
O487        O  0.52152906  0.53718850  0.63105448    -0.79200
O488        O  0.99804477  0.57191942  0.56402013    -0.79200
O489        O  0.41520766  0.95838139  0.96930108    -0.79200
O490        O  0.46398032  0.48537578  0.62118701    -0.79200
O491        O  0.50971564  0.54063238  0.88260099    -0.79200
Co492      Co  0.46158222  0.97547346  0.99572450     1.51500
Co493      Co  0.03199685  0.55582401  0.50479126     1.51700
Co494      Co  0.00226037  0.49176134  0.92847639     1.51600
Co495      Co  0.51832988  0.98570569  0.59286770     1.51500
O496        O  0.50854217  0.00406840  0.01178171    -1.41100
C497        C  0.43467293  0.00045980  0.60063896     1.10400
C498        C  0.99931118  0.57144378  0.90402932     1.10500
C499        C  0.41421995  0.48403721  0.93131130     1.10500
C500        C  0.50699426  0.56827440  0.61447070     1.10400
C501        C  0.99785268  0.78657156  0.77520335     0.03200
C502        C  0.00001455  0.78313231  0.71527897     0.03200
C503        C  0.00468766  0.74714527  0.69210322    -0.17300
C504        C  0.00445020  0.71399056  0.72569154     0.03200
C505        C  0.99905651  0.71666798  0.78496387     0.03200
C506        C  0.99749608  0.75289905  0.80892676    -0.17300
H507        H  0.99536172  0.75483189  0.85451220     0.05200
H508        H  0.00689575  0.74464712  0.64650251     0.05200
C509        C  0.28534990  0.50382903  0.78710341     0.03200
C510        C  0.29022324  0.50363697  0.72719590     0.03200
C511        C  0.25787729  0.50482875  0.69401564    -0.17300
C512        C  0.22157935  0.50757278  0.71830421     0.03200
C513        C  0.21710948  0.50755735  0.77809470     0.03200
C514        C  0.24906721  0.50619066  0.81120236    -0.15900
H515        H  0.24559221  0.50655094  0.85693919     0.05200
H516        H  0.26094740  0.50402474  0.64829627     0.05200
C517        C  0.18923327  0.51014797  0.67931101    -0.04400
C518        C  0.17555749  0.97715336  0.65415879    -0.01500
C519        C  0.14524430  0.97918701  0.61690704     0.03500
C520        C  0.12789851  0.51462844  0.60396107    -0.04400
C521        C  0.14491520  0.54815133  0.62404360    -0.01500
C522        C  0.17536702  0.54578598  0.66129124     0.03500
C523        C  0.19392292  0.94108370  0.66457469     0.38100
C524        C  0.13166344  0.58537383  0.60659866     0.38100
C525        C  0.19382741  0.58028749  0.67834888     0.36500
C526        C  0.13304952  0.94441493  0.59095260     0.36600
N527        N  0.20861004  0.60818493  0.69036823    -0.38300
N528        N  0.12362795  0.91648868  0.57056165    -0.38300
N529        N  0.12136844  0.61518500  0.59272717    -0.37700
N530        N  0.20887130  0.91238380  0.67184125    -0.37700
C531        C  0.11456444  0.51065909  0.88259326    -0.04400
C532        C  0.13361286  0.04472518  0.86411956    -0.01500
C533        C  0.16673586  0.04342706  0.83006311     0.03500
C534        C  0.17990935  0.50877568  0.80901028    -0.04400
C535        C  0.16154036  0.47481265  0.82707279    -0.01500
C536        C  0.12978828  0.47556303  0.86445482     0.03500
C537        C  0.12012110  0.08190728  0.87945786     0.38100
C538        C  0.17688798  0.43862890  0.81033871     0.38100
C539        C  0.11430169  0.43973400  0.88604173     0.36500
C540        C  0.18903018  0.07774184  0.82060676     0.36600
N541        N  0.10220974  0.41100443  0.90311904    -0.38300
N542        N  0.20695762  0.10512795  0.81497866    -0.38300
N543        N  0.18895516  0.40948250  0.79792615    -0.37700
N544        N  0.11065856  0.11226032  0.89041662    -0.37700
C545        C  0.39912370  0.00394120  0.63655090    -0.04400
C546        C  0.39205544  0.97921980  0.68419300    -0.01500
C547        C  0.35556572  0.97608926  0.70884443     0.03500
C548        C  0.32831219  0.50402814  0.69746867    -0.04400
C549        C  0.33693737  0.53183222  0.65478127    -0.01500
C550        C  0.36995036  0.52906982  0.62074979     0.03500
C551        C  0.42138620  0.95567103  0.70751316     0.38100
C552        C  0.31169075  0.56334796  0.64501875     0.38100
C553        C  0.37178878  0.55042814  0.56764360     0.36500
C554        C  0.34526158  0.94137262  0.73958965     0.36600
N555        N  0.37167149  0.56653494  0.52442726    -0.38300
N556        N  0.33777883  0.91268165  0.76207397    -0.38300
N557        N  0.29177738  0.58865245  0.63737954    -0.37700
N558        N  0.44461028  0.93712539  0.72710192    -0.37700
C559        C  0.31709249  0.50017439  0.82682132    -0.04400
C560        C  0.31942204  0.96759365  0.86253708    -0.01500
C561        C  0.35054764  0.96235392  0.89732517     0.03500
C562        C  0.37869099  0.49102251  0.89990860    -0.04400
C563        C  0.37253055  0.52615819  0.87132325    -0.01500
C564        C  0.34310926  0.53000750  0.83269510     0.03500
C565        C  0.29001868  0.93878641  0.86280197     0.38100
C566        C  0.39280208  0.55976363  0.88745985     0.38100
C567        C  0.33845140  0.56539746  0.80115396     0.36500
C568        C  0.35227243  0.92750173  0.93106767     0.36600
N569        N  0.33470761  0.59360514  0.77590643    -0.38300
N570        N  0.35229450  0.89967380  0.95806560    -0.38300
N571        N  0.40760859  0.58705714  0.90192940    -0.37700
N572        N  0.26664281  0.91584366  0.86353150    -0.37700
C573        C  0.00614251  0.67655690  0.69687313    -0.04400
C574        C  0.47778743  0.66706003  0.65912363    -0.01500
C575        C  0.47676646  0.63088430  0.63551042     0.03500
C576        C  0.00381142  0.60292379  0.64969644    -0.04400
C577        C  0.03166026  0.61218547  0.68882756    -0.01500
C578        C  0.03390926  0.64941100  0.70990249     0.03500
C579        C  0.44886201  0.69440785  0.64494072     0.38100
C580        C  0.05861010  0.58401955  0.70680438     0.38100
C581        C  0.06581219  0.66031917  0.74281552     0.36500
C582        C  0.44810414  0.62366767  0.59467031     0.36600
N583        N  0.09158163  0.66897617  0.76844347    -0.38300
N584        N  0.42574005  0.61961571  0.56080704    -0.38300
N585        N  0.07990128  0.56161208  0.72212826    -0.37700
N586        N  0.42582573  0.71608336  0.63364087    -0.37700
C587        C  0.99994062  0.60840356  0.87316917    -0.04400
C588        C  0.47691637  0.61467215  0.82663636    -0.01500
C589        C  0.47045615  0.65211415  0.80770934     0.03500
C590        C  0.99552996  0.68153733  0.82183303    -0.04400
C591        C  0.02017952  0.67496692  0.86681138    -0.01500
C592        C  0.01951554  0.63957611  0.89581069     0.03500
C593        C  0.45988852  0.58309911  0.79826378     0.38100
C594        C  0.04699128  0.70378344  0.88244322     0.38100
C595        C  0.03918960  0.63554361  0.94863358     0.36500
C596        C  0.43661978  0.66058369  0.77750978     0.36600
N597        N  0.05452839  0.63277853  0.99108114    -0.38300
N598        N  0.40880529  0.66690391  0.75512891    -0.38300
N599        N  0.06851507  0.72668098  0.89476107    -0.37700
N600        N  0.44691476  0.55792140  0.77476392    -0.37700
C601        C  0.48623650  0.87653632  0.59557329    -0.04400
C602        C  0.45596321  0.86491826  0.63166062    -0.01500
C603        C  0.46081562  0.83529778  0.67206615     0.03500
C604        C  0.99527094  0.81567392  0.67432138    -0.04400
C605        C  0.02324745  0.82362282  0.63193363    -0.01500
C606        C  0.01851991  0.85367390  0.59259774     0.03500
C607        C  0.41948278  0.88228743  0.62598386     0.38100
C608        C  0.05731963  0.80133126  0.62892407     0.38100
C609        C  0.04603433  0.85988351  0.54696439     0.36500
C610        C  0.42983688  0.82449327  0.71006052     0.36600
N611        N  0.06761990  0.86435778  0.51001245    -0.38300
N612        N  0.40479406  0.81632112  0.74004361    -0.38300
N613        N  0.08441799  0.78350380  0.62639570    -0.37700
N614        N  0.39015964  0.89554505  0.62060624    -0.37700
C615        C  0.99326407  0.89600850  0.85934918    -0.04400
C616        C  0.46935790  0.86553164  0.87738030    -0.01500
C617        C  0.46886109  0.83127628  0.84734672     0.03500
C618        C  0.99603979  0.82452793  0.80389620    -0.04400
C619        C  0.02274485  0.85354240  0.79057579    -0.01500
C620        C  0.01920319  0.88994022  0.81416504     0.03500
C621        C  0.44565328  0.86853099  0.92779749     0.38100
C622        C  0.05648578  0.84512424  0.75803106     0.38100
C623        C  0.04345738  0.92053753  0.79276840     0.36500
C624        C  0.44011293  0.80308209  0.86186921     0.36600
N625        N  0.06248457  0.94490183  0.77473195    -0.38300
N626        N  0.41724454  0.78065051  0.87383749    -0.38300
N627        N  0.08436343  0.83906702  0.73397019    -0.37700
N628        N  0.42761904  0.86989617  0.96905338    -0.37700
O629        O  0.98572147  0.43459433  0.44274547    -0.79200
O630        O  0.57595209  0.04654926  0.05708126    -0.79200
O631        O  0.55714786  0.48323852  0.42398060    -0.79200
O632        O  0.51780819  0.43309566  0.06694035    -0.79200
O633        O  0.56928001  0.04304275  0.44204241    -0.79300
O634        O  0.95840508  0.43189056  0.05191942    -0.79200
O635        O  0.57177693  0.48542162  0.07374619    -0.79200
O636        O  0.49660114  0.46448513  0.36063090    -0.79200
C637        C  0.49148110  0.43348110  0.38836801     1.10500
C638        C  0.59059564  0.51565980  0.07492575     1.10400
C639        C  0.57892126  0.01195767  0.41917108     1.10500
C640        C  0.98735788  0.41508477  0.06854581     1.10400
O641        O  0.93448817  0.50910402  0.04832172    -0.79200
O642        O  0.49155178  0.07120162  0.45566384    -0.79300
O643        O  0.94446070  0.00394510  0.42060158    -0.79200
O644        O  0.02152643  0.03718925  0.13105586    -0.79200
O645        O  0.49803889  0.07191772  0.06401862    -0.79200
O646        O  0.91520819  0.45838435  0.46930518    -0.79200
O647        O  0.96397768  0.98537703  0.12118677    -0.79200
O648        O  0.00971288  0.04063009  0.38260073    -0.79200
Co649      Co  0.96158339  0.47547532  0.49572641     1.51500
Co650      Co  0.53199283  0.05582436  0.00479148     1.51700
Co651      Co  0.50225757  0.99176139  0.42847730     1.51600
Co652      Co  0.01833211  0.48570463  0.09286701     1.51500
O653        O  0.00854420  0.50406880  0.51178211    -1.41100
C654        C  0.93467478  0.50045676  0.10063855     1.10400
C655        C  0.49930716  0.07144350  0.40402951     1.10500
C656        C  0.91421695  0.98403532  0.43131026     1.10500
C657        C  0.00699146  0.06827469  0.11447062     1.10400
C658        C  0.49784605  0.28657141  0.27520402     0.03200
C659        C  0.50001056  0.28313232  0.21527988     0.03200
C660        C  0.50468310  0.24714514  0.19210460    -0.17300
C661        C  0.50444274  0.21399024  0.22569289     0.03200
C662        C  0.49904650  0.21666767  0.28496457     0.03200
C663        C  0.49748656  0.25289882  0.30892722    -0.17300
H664        H  0.49535161  0.25483170  0.35451248     0.05200
H665        H  0.50689306  0.24464703  0.14650412     0.05200
C666        C  0.78534650  0.00383123  0.28710397     0.03200
C667        C  0.79022089  0.00364339  0.22719178     0.03200
C668        C  0.75787649  0.00483732  0.19401004    -0.17300
C669        C  0.72157912  0.00757806  0.21829893     0.03200
C670        C  0.71710806  0.00755768  0.27809418     0.03200
C671        C  0.74906434  0.00619006  0.31120325    -0.15900
H672        H  0.74558798  0.00654705  0.35694960     0.05200
H673        H  0.76094785  0.00403725  0.14828151     0.05200
C674        C  0.68923231  0.01015340  0.17930715    -0.04400
C675        C  0.67555948  0.47715276  0.15415776    -0.01500
C676        C  0.64524679  0.47918775  0.11690530     0.03500
C677        C  0.62789663  0.01463364  0.10395939    -0.04400
C678        C  0.64491153  0.04815669  0.12404465    -0.01500
C679        C  0.67536496  0.04579144  0.16128927     0.03500
C680        C  0.69392434  0.44108251  0.16457243     0.38100
C681        C  0.63165647  0.08537902  0.10660583     0.38100
C682        C  0.69382715  0.08029280  0.17834389     0.36500
C683        C  0.63305069  0.44441581  0.09095191     0.36600
N684        N  0.70861178  0.10818979  0.19036030    -0.38300
N685        N  0.62362833  0.41648944  0.07056223    -0.38300
N686        N  0.62135873  0.11519016  0.09273925    -0.37700
N687        N  0.70887196  0.41238206  0.17183827    -0.37700
C688        C  0.61456222  0.01065807  0.38259179    -0.04400
C689        C  0.63361548  0.54472319  0.36412052    -0.01500
C690        C  0.66673935  0.54342446  0.33006660     0.03500
C691        C  0.67990677  0.00877539  0.30900656    -0.04400
C692        C  0.66153787  0.97481223  0.32706899    -0.01500
C693        C  0.62978624  0.97556224  0.36445251     0.03500
C694        C  0.62012421  0.58190561  0.37945768     0.38100
C695        C  0.67688457  0.93862872  0.31033217     0.38100
C696        C  0.61430013  0.93973311  0.38603996     0.36500
C697        C  0.68903744  0.57773759  0.32061833     0.36600
N698        N  0.60220867  0.91100326  0.40311696    -0.38300
N699        N  0.70696848  0.60512174  0.31499648    -0.38300
N700        N  0.68895068  0.90948252  0.29791628    -0.37700
N701        N  0.61066142  0.61225874  0.39041524    -0.37700
C702        C  0.89912540  0.50393706  0.13655059    -0.04400
C703        C  0.89205833  0.47921689  0.18419462    -0.01500
C704        C  0.85556876  0.47608645  0.20884761     0.03500
C705        C  0.82831099  0.00403470  0.19746812    -0.04400
C706        C  0.83693865  0.03184073  0.15478441    -0.01500
C707        C  0.86995169  0.02907779  0.12075322     0.03500
C708        C  0.92139000  0.45566943  0.20751491     0.38100
C709        C  0.81169455  0.06335913  0.14502620     0.38100
C710        C  0.87179266  0.05043973  0.06765059     0.36500
C711        C  0.84526660  0.44137093  0.23959782     0.36600
N712        N  0.87167661  0.06654938  0.02443653    -0.38300
N713        N  0.83778507  0.41268105  0.26208623    -0.38300
N714        N  0.79178331  0.08866582  0.13739038    -0.37700
N715        N  0.94461455  0.43712436  0.22710353    -0.37700
C716        C  0.81709010  0.00017516  0.32681960    -0.04400
C717        C  0.81942273  0.46759304  0.36254321    -0.01500
C718        C  0.85054767  0.46235549  0.39733268     0.03500
C719        C  0.87868834  0.99102124  0.39990708    -0.04400
C720        C  0.87252777  0.02615783  0.37132452    -0.01500
C721        C  0.84310656  0.03000835  0.33269647     0.03500
C722        C  0.79001898  0.43878604  0.36281192     0.38100
C723        C  0.89279915  0.05976268  0.38746408     0.38100
C724        C  0.83844864  0.06539964  0.30115882     0.36500
C725        C  0.85227168  0.42750525  0.43107977     0.36600
N726        N  0.83470485  0.09360849  0.27591431    -0.38300
N727        N  0.85229333  0.39967892  0.45808139    -0.38300
N728        N  0.90760565  0.08705570  0.40193543    -0.37700
N729        N  0.76664267  0.41584365  0.36354467    -0.37700
C730        C  0.50613494  0.17655658  0.19687452    -0.04400
C731        C  0.97778406  0.16706154  0.15912228    -0.01500
C732        C  0.97676590  0.13088770  0.13550289     0.03500
C733        C  0.50380501  0.10292485  0.14969301    -0.04400
C734        C  0.53165117  0.11218450  0.18882957    -0.01500
C735        C  0.53390015  0.14940950  0.20990621     0.03500
C736        C  0.94885902  0.19440970  0.14493894     0.38100
C737        C  0.55859944  0.08401748  0.20680863     0.38100
C738        C  0.56580164  0.16031573  0.24282370     0.36500
C739        C  0.94811109  0.12367673  0.09464853     0.36600
N740        N  0.59157008  0.16897062  0.26845542    -0.38300
N741        N  0.92575440  0.11962969  0.06077275    -0.38300
N742        N  0.57988976  0.06160936  0.22213323    -0.37700
N743        N  0.92582298  0.21608534  0.13363860    -0.37700
C744        C  0.49993406  0.10840319  0.37316914    -0.04400
C745        C  0.97690948  0.11466846  0.32663759    -0.01500
C746        C  0.97044695  0.15211029  0.30771137     0.03500
C747        C  0.49551993  0.18153706  0.32183394    -0.04400
C748        C  0.52017041  0.17496732  0.36681118    -0.01500
C749        C  0.51950889  0.13957623  0.39580928     0.03500
C750        C  0.95988351  0.08309449  0.29826469     0.38100
C751        C  0.54698221  0.20378439  0.38244134     0.38100
C752        C  0.53918573  0.13554395  0.44862980     0.36500
C753        C  0.93661179  0.16057727  0.27750689     0.36600
N754        N  0.55452672  0.13277900  0.49107549    -0.38300
N755        N  0.90879841  0.16689525  0.25512158    -0.38300
N756        N  0.56850589  0.22668249  0.39475750    -0.37700
N757        N  0.94691126  0.05791591  0.27476500    -0.37700
C758        C  0.98623952  0.37653623  0.09557769    -0.04400
C759        C  0.95596456  0.36491924  0.13166280    -0.01500
C760        C  0.96081446  0.33529916  0.17206977     0.03500
C761        C  0.49526958  0.31567423  0.17432204    -0.04400
C762        C  0.52324806  0.32362290  0.13193721    -0.01500
C763        C  0.51852346  0.35367525  0.09260222     0.03500
C764        C  0.91948495  0.38228951  0.12598289     0.38100
C765        C  0.55731934  0.30132966  0.12892957     0.38100
C766        C  0.54604100  0.35988530  0.04697315     0.36500
C767        C  0.92983419  0.32449671  0.21006241     0.36600
N768        N  0.56762900  0.36435988  0.01002448    -0.38300
N769        N  0.90479049  0.31632603  0.24004462    -0.38300
N770        N  0.58441704  0.28350098  0.12640317    -0.37700
N771        N  0.89016242  0.39554815  0.12060322    -0.37700
C772        C  0.49326086  0.39600936  0.35934782    -0.04400
C773        C  0.96935229  0.36553257  0.37738637    -0.01500
C774        C  0.96885350  0.33127663  0.34735406     0.03500
C775        C  0.49603450  0.32452784  0.30389696    -0.04400
C776        C  0.52274022  0.35354153  0.29057568    -0.01500
C777        C  0.51919896  0.38994006  0.31416273     0.03500
C778        C  0.94564978  0.36853309  0.42780568     0.38100
C779        C  0.55648241  0.34512152  0.25803496     0.38100
C780        C  0.54345235  0.42053708  0.29276255     0.36500
C781        C  0.94010445  0.30308397  0.36187898     0.36600
N782        N  0.56247895  0.44490105  0.27472324    -0.38300
N783        N  0.91723529  0.28065370  0.37384951    -0.38300
N784        N  0.58436104  0.33906257  0.23397791    -0.37700
N785        N  0.92761736  0.36989878  0.46906332    -0.37700
O786        O  0.98572059  0.43459662  0.94274715    -0.79200
O787        O  0.57595566  0.04654814  0.55707623    -0.79200
O788        O  0.55714653  0.48324079  0.92397985    -0.79200
O789        O  0.51780799  0.43309248  0.56693841    -0.79200
O790        O  0.56928039  0.04304324  0.94204666    -0.79300
O791        O  0.95840441  0.43188759  0.55191837    -0.79200
O792        O  0.57177432  0.48541927  0.57374554    -0.79200
O793        O  0.49659831  0.46448715  0.86063408    -0.79200
C794        C  0.49147909  0.43348359  0.88837260     1.10500
C795        C  0.59059265  0.51565735  0.57492821     1.10400
C796        C  0.57892366  0.01195877  0.91917537     1.10500
C797        C  0.98735718  0.41508224  0.56854559     1.10400
O798        O  0.93448685  0.50910081  0.54831902    -0.79200
O799        O  0.49154982  0.07119728  0.95566271    -0.79300
O800        O  0.94446354  0.00394094  0.92059732    -0.79200
O801        O  0.02152966  0.03719019  0.63105521    -0.79200
O802        O  0.49804557  0.07192235  0.56402074    -0.79200
O803        O  0.91520777  0.45838818  0.96930781    -0.79200
O804        O  0.96397880  0.98538010  0.62118893    -0.79200
O805        O  0.00971530  0.04062925  0.88260124    -0.79200
Co806      Co  0.96158360  0.47547826  0.99572806     1.51500
Co807      Co  0.53199566  0.05582614  0.50479016     1.51700
Co808      Co  0.50226097  0.99175860  0.92847515     1.51600
Co809      Co  0.01833046  0.48570258  0.59286639     1.51500
O810        O  0.00854483  0.50407099  0.01178281    -1.41100
C811        C  0.93467303  0.50045399  0.60063607     1.10400
C812        C  0.49930795  0.07144079  0.90402935     1.10500
C813        C  0.91421994  0.98403051  0.93130425     1.10500
C814        C  0.00699520  0.06827606  0.61447100     1.10400
C815        C  0.49784743  0.28657196  0.77521444     0.03200
C816        C  0.50001543  0.28313329  0.71529029     0.03200
C817        C  0.50469140  0.24714641  0.69211503    -0.17300
C818        C  0.50444966  0.21399113  0.72570266     0.03200
C819        C  0.49904907  0.21666789  0.78497362     0.03200
C820        C  0.49748634  0.25289885  0.80893709    -0.17300
H821        H  0.49534811  0.25483101  0.85452184     0.05200
H822        H  0.50690380  0.24464868  0.64651498     0.05200
C823        C  0.78535126  0.00383386  0.78709548     0.03200
C824        C  0.79022438  0.00364636  0.72719873     0.03200
C825        C  0.75787665  0.00484044  0.69401900    -0.17300
C826        C  0.72157599  0.00758119  0.71830504     0.03200
C827        C  0.71710612  0.00756315  0.77808520     0.03200
C828        C  0.74906622  0.00619469  0.81119216    -0.15900
H829        H  0.74559276  0.00655250  0.85690682     0.05200
H830        H  0.76094613  0.00403951  0.64831919     0.05200
C831        C  0.68923307  0.01015496  0.67930597    -0.04400
C832        C  0.67555417  0.47714917  0.65416696    -0.01500
C833        C  0.64524026  0.47918354  0.61691676     0.03500
C834        C  0.62789897  0.01463299  0.60395604    -0.04400
C835        C  0.64491305  0.04815656  0.62404091    -0.01500
C836        C  0.67536556  0.04579241  0.66128707     0.03500
C837        C  0.69391611  0.44107804  0.66458732     0.38100
C838        C  0.63165771  0.08537849  0.60660010     0.38100
C839        C  0.69382664  0.08029440  0.67834094     0.36500
C840        C  0.63303957  0.44440949  0.59097407     0.36600
N841        N  0.70861020  0.10819224  0.69035609    -0.38300
N842        N  0.62361327  0.41648109  0.57059427    -0.38300
N843        N  0.62135979  0.11518916  0.59273158    -0.37700
N844        N  0.70886129  0.41237673  0.67185708    -0.37700
C845        C  0.61456533  0.01066068  0.88259723    -0.04400
C846        C  0.63360900  0.54472394  0.86410512    -0.01500
C847        C  0.66673512  0.54342422  0.83005687     0.03500
C848        C  0.67990760  0.00878027  0.80900729    -0.04400
C849        C  0.66153946  0.97481668  0.82706879    -0.01500
C850        C  0.62978827  0.97556558  0.86445308     0.03500
C851        C  0.62010946  0.58190733  0.87942097     0.38100
C852        C  0.67688607  0.93863368  0.81032955     0.38100
C853        C  0.61430209  0.93973564  0.88603725     0.36500
C854        C  0.68903148  0.57773810  0.82060496     0.36600
N855        N  0.60221045  0.91100530  0.90311203    -0.38300
N856        N  0.70696107  0.60512311  0.81498145    -0.38300
N857        N  0.68895240  0.90948781  0.79791246    -0.37700
N858        N  0.61064070  0.61226191  0.89035890    -0.37700
C859        C  0.89912334  0.50393441  0.63654769    -0.04400
C860        C  0.89205703  0.47921554  0.68419354    -0.01500
C861        C  0.85556803  0.47608580  0.70884863     0.03500
C862        C  0.82831189  0.00403703  0.69746829    -0.04400
C863        C  0.83693946  0.03184421  0.65478714    -0.01500
C864        C  0.86995268  0.02908188  0.62075596     0.03500
C865        C  0.92138910  0.45566829  0.70751351     0.38100
C866        C  0.81169639  0.06336394  0.64503213     0.38100
C867        C  0.87179342  0.05044356  0.56765294     0.36500
C868        C  0.84526677  0.44137156  0.73960257     0.36600
N869        N  0.87167688  0.06655296  0.52443868    -0.38300
N870        N  0.83778630  0.41268264  0.76209456    -0.38300
N871        N  0.79178673  0.08867233  0.63739944    -0.37700
N872        N  0.94461383  0.43712321  0.72710162    -0.37700
C873        C  0.81709130  0.00017651  0.82681847    -0.04400
C874        C  0.81942156  0.46759630  0.86254722    -0.01500
C875        C  0.85054580  0.46236005  0.89733868     0.03500
C876        C  0.87869176  0.99101698  0.89990007    -0.04400
C877        C  0.87253073  0.02615519  0.87132231    -0.01500
C878        C  0.84310920  0.03000813  0.83269561     0.03500
C879        C  0.79001801  0.43878923  0.86281706     0.38100
C880        C  0.89280254  0.05975905  0.88746464     0.38100
C881        C  0.83845314  0.06539981  0.80115864     0.36500
C882        C  0.85226800  0.42751222  0.93109190     0.36600
N883        N  0.83471127  0.09360904  0.77591428    -0.38300
N884        N  0.85228847  0.39968813  0.95809885    -0.38300
N885        N  0.90760908  0.08705140  0.90193848    -0.37700
N886        N  0.76664207  0.41584643  0.86355141    -0.37700
C887        C  0.50614291  0.17655790  0.69688291    -0.04400
C888        C  0.97779048  0.16706302  0.65912463    -0.01500
C889        C  0.97677090  0.13088904  0.63550591     0.03500
C890        C  0.50381291  0.10292712  0.64969755    -0.04400
C891        C  0.53165873  0.11218554  0.68883545    -0.01500
C892        C  0.53390693  0.14940969  0.70991605     0.03500
C893        C  0.94886735  0.19441263  0.64493839     0.38100
C894        C  0.55860669  0.08401781  0.70681299     0.38100
C895        C  0.56580594  0.16031359  0.74284041     0.36500
C896        C  0.94811393  0.12367753  0.59465509     0.36600
N897        N  0.59157219  0.16896652  0.76847839    -0.38300
N898        N  0.92575512  0.11963019  0.56078259    -0.38300
N899        N  0.57989681  0.06160908  0.72213627    -0.37700
N900        N  0.92583292  0.21608946  0.63363553    -0.37700
C901        C  0.49993551  0.10840134  0.87317145    -0.04400
C902        C  0.97691143  0.11466863  0.82663918    -0.01500
C903        C  0.97044965  0.15211062  0.80771319     0.03500
C904        C  0.49552093  0.18153681  0.82184160    -0.04400
C905        C  0.52016906  0.17496660  0.86682169    -0.01500
C906        C  0.51950812  0.13957420  0.89581631     0.03500
C907        C  0.95988541  0.08309515  0.79826507     0.38100
C908        C  0.54697740  0.20378496  0.88245920     0.38100
C909        C  0.53918287  0.13554060  0.94863861     0.36500
C910        C  0.93661580  0.16057805  0.77750595     0.36600
N911        N  0.55452195  0.13277482  0.99108585    -0.38300
N912        N  0.90880356  0.16689641  0.75511771    -0.38300
N913        N  0.56849822  0.22668413  0.89478155    -0.37700
N914        N  0.94691293  0.05791695  0.77476473    -0.37700
C915        C  0.98623958  0.37653384  0.59557821    -0.04400
C916        C  0.95596511  0.36491652  0.63166383    -0.01500
C917        C  0.96081616  0.33529733  0.67207200     0.03500
C918        C  0.49527430  0.31567494  0.67433158    -0.04400
C919        C  0.52325347  0.32362421  0.63194799    -0.01500
C920        C  0.51852724  0.35367385  0.59260887     0.03500
C921        C  0.91948491  0.38228540  0.62598296     0.38100
C922        C  0.55732692  0.30133418  0.62894564     0.38100
C923        C  0.54604430  0.35988256  0.54697873     0.36500
C924        C  0.92983612  0.32449394  0.71006451     0.36600
N925        N  0.56763189  0.36435577  0.51002922    -0.38300
N926        N  0.90479258  0.31632259  0.74004669    -0.38300
N927        N  0.58442634  0.28350798  0.62642331    -0.37700
N928        N  0.89016193  0.39554280  0.62060248    -0.37700
C929        C  0.49325978  0.39601114  0.85935459    -0.04400
C930        C  0.96935187  0.36553407  0.87738836    -0.01500
C931        C  0.96885440  0.33127742  0.84735745     0.03500
C932        C  0.49603513  0.32452851  0.80390738    -0.04400
C933        C  0.52274189  0.35354154  0.79058792    -0.01500
C934        C  0.51919995  0.38994054  0.81417280     0.03500
C935        C  0.94564762  0.36853553  0.92780557     0.38100
C936        C  0.55648561  0.34512024  0.75805202     0.38100
C937        C  0.54345537  0.42053664  0.79277520     0.36500
C938        C  0.94010603  0.30308413  0.86188306     0.36600
N939        N  0.56248346  0.44489989  0.77473771    -0.38300
N940        N  0.91723764  0.28065329  0.87385474    -0.38300
N941        N  0.58436562  0.33906048  0.73399924    -0.37700
N942        N  0.92761371  0.36990221  0.96906161    -0.37700
O943        O  0.98571753  0.93459576  0.44274744    -0.79200
O944        O  0.57595872  0.54655011  0.05707673    -0.79200
O945        O  0.55714389  0.98323881  0.42397990    -0.79200
O946        O  0.51780699  0.93309305  0.06693907    -0.79200
O947        O  0.56928243  0.54304240  0.44204548    -0.79300
O948        O  0.95840340  0.93188691  0.05191749    -0.79200
O949        O  0.57177241  0.98542075  0.07374822    -0.79200
O950        O  0.49659525  0.96448613  0.36063488    -0.79200
C951        C  0.49147717  0.93348242  0.38837360     1.10500
C952        C  0.59059006  0.01565931  0.07492982     1.10400
C953        C  0.57892482  0.51195781  0.41917372     1.10500
C954        C  0.98735666  0.91508230  0.06854449     1.10400
O955        O  0.93448393  0.00909966  0.04831743    -0.79200
O956        O  0.49155336  0.57119906  0.45566255    -0.79300
O957        O  0.94446392  0.50394222  0.42059906    -0.79200
O958        O  0.02153178  0.53719056  0.13105515    -0.79200
O959        O  0.49804860  0.57192377  0.06402237    -0.79200
O960        O  0.91520464  0.95838799  0.46930846    -0.79200
O961        O  0.96398166  0.48537919  0.12118914    -0.79200
O962        O  0.00971662  0.54062904  0.38260001    -0.79200
Co963      Co  0.96158066  0.97547801  0.49572815     1.51500
Co964      Co  0.53199855  0.55582789  0.00479080     1.51700
Co965      Co  0.50226145  0.49175955  0.42847498     1.51600
Co966      Co  0.01832842  0.98570305  0.09286729     1.51500
O967        O  0.00854231  0.00407001  0.51178269    -1.41100
C968        C  0.93467097  0.00045432  0.10063503     1.10400
C969        C  0.49931091  0.57144200  0.40402888     1.10500
C970        C  0.91422052  0.48403165  0.43130682     1.10500
C971        C  0.00699774  0.56827677  0.11447134     1.10400
C972        C  0.49785901  0.78657282  0.27521184     0.03200
C973        C  0.50002566  0.78313464  0.21528747     0.03200
C974        C  0.50470245  0.74714807  0.19211155    -0.17300
C975        C  0.50446257  0.71399268  0.22569858     0.03200
C976        C  0.49906352  0.71666893  0.28496992     0.03200
C977        C  0.49750100  0.75289959  0.30893402    -0.17300
H978        H  0.49536355  0.75483148  0.35451916     0.05200
H979        H  0.50691338  0.74465047  0.14651122     0.05200
C980        C  0.78534867  0.50382958  0.28710450     0.03200
C981        C  0.79022285  0.50363968  0.22719091     0.03200
C982        C  0.75787877  0.50483359  0.19400937    -0.17300
C983        C  0.72158203  0.50757669  0.21829863     0.03200
C984        C  0.71711116  0.50755964  0.27809552     0.03200
C985        C  0.74906719  0.50619088  0.31120438    -0.15900
H986        H  0.74559087  0.50654901  0.35695409     0.05200
H987        H  0.76095017  0.50403198  0.14827762     0.05200
C988        C  0.68923532  0.51015266  0.17930699    -0.04400
C989        C  0.67555374  0.97715256  0.15416401    -0.01500
C990        C  0.64524037  0.97918704  0.11691284     0.03500
C991        C  0.62790223  0.51463409  0.10395467    -0.04400
C992        C  0.64491549  0.54815676  0.12404412    -0.01500
C993        C  0.67536642  0.54579093  0.16129332     0.03500
C994        C  0.69391644  0.94108179  0.16458314     0.38100
C995        C  0.63166122  0.58537937  0.10660462     0.38100
C996        C  0.69382449  0.58029231  0.17835673     0.36500
C997        C  0.63304244  0.94441405  0.09096419     0.36600
N998        N  0.70860551  0.60818956  0.19038099    -0.38300
N999        N  0.62361868  0.91648692  0.07057816    -0.38300
N1000       N  0.62136439  0.61519064  0.09273686    -0.37700
N1001       N  0.70886238  0.91238084  0.17185254    -0.37700
C1002       C  0.61456660  0.51065910  0.38259581    -0.04400
C1003       C  0.63360742  0.04472202  0.36410719    -0.01500
C1004       C  0.66673237  0.04342279  0.33005578     0.03500
C1005       C  0.67990992  0.50877810  0.30900787    -0.04400
C1006       C  0.66153858  0.47481483  0.32706356    -0.01500
C1007       C  0.62978743  0.47556381  0.36444783     0.03500
C1008       C  0.62011019  0.08190506  0.37942970     0.38100
C1009       C  0.67688359  0.43863176  0.31032103     0.38100
C1010       C  0.61429945  0.43973380  0.38602862     0.36500
C1011       C  0.68902719  0.07773727  0.32059988     0.36600
N1012       N  0.60220669  0.41100345  0.40310145    -0.38300
N1013       N  0.70695542  0.10512293  0.31497273    -0.38300
N1014       N  0.68894911  0.40948616  0.29790095    -0.37700
N1015       N  0.61064316  0.11225906  0.39037417    -0.37700
C1016       C  0.89912226  0.00393671  0.13654776    -0.04400
C1017       C  0.89205486  0.97921717  0.18419232    -0.01500
C1018       C  0.85556563  0.97608854  0.20884690     0.03500
C1019       C  0.82831313  0.50403155  0.19746815    -0.04400
C1020       C  0.83694012  0.53183793  0.15478486    -0.01500
C1021       C  0.86995361  0.52907641  0.12075470     0.03500
C1022       C  0.92138594  0.95566821  0.20751146     0.38100
C1023       C  0.81169528  0.56335567  0.14502704     0.38100
C1024       C  0.87179393  0.55043804  0.06765144     0.36500
C1025       C  0.84526254  0.94137352  0.23959741     0.36600
N1026       N  0.87167791  0.56654739  0.02443707    -0.38300
N1027       N  0.83778070  0.91268373  0.26208583    -0.38300
N1028       N  0.79178306  0.58866170  0.13739222    -0.37700
N1029       N  0.94461012  0.93712238  0.22709947    -0.37700
C1030       C  0.81709276  0.50017274  0.32681854    -0.04400
C1031       C  0.81942003  0.96759573  0.36254487    -0.01500
C1032       C  0.85054380  0.96235946  0.39733716     0.03500
C1033       C  0.87869220  0.49101725  0.39990293    -0.04400
C1034       C  0.87253166  0.52615412  0.37132089    -0.01500
C1035       C  0.84311023  0.53000506  0.33269358     0.03500
C1036       C  0.79001751  0.93878761  0.36281162     0.38100
C1037       C  0.89280409  0.55975874  0.38745893     0.38100
C1038       C  0.83845350  0.56539581  0.30115430     0.36500
C1039       C  0.85226608  0.92751118  0.43108924     0.36600
N1040       N  0.83471093  0.59360406  0.27590776    -0.38300
N1041       N  0.85228688  0.89968687  0.45809571    -0.38300
N1042       N  0.90761132  0.58705167  0.40192926    -0.37700
N1043       N  0.76664234  0.91584407  0.36354289    -0.37700
C1044       C  0.50615426  0.67655963  0.19687836    -0.04400
C1045       C  0.97779842  0.66706515  0.15912253    -0.01500
C1046       C  0.97677563  0.63089009  0.13550773     0.03500
C1047       C  0.50381875  0.60292730  0.14969945    -0.04400
C1048       C  0.53166730  0.61218612  0.18883264    -0.01500
C1049       C  0.53391815  0.64941103  0.20990988     0.03500
C1050       C  0.94887554  0.69441547  0.14493787     0.38100
C1051       C  0.55861391  0.58401743  0.20681114     0.38100
C1052       C  0.56581963  0.66031542  0.24282879     0.36500
C1053       C  0.94811412  0.62367668  0.09466479     0.36600
N1054       N  0.59158790  0.66896860  0.26846211    -0.38300
N1055       N  0.92575089  0.61962731  0.06079955    -0.38300
N1056       N  0.57990257  0.56160788  0.22213645    -0.37700
N1057       N  0.92584130  0.71609285  0.13363636    -0.37700
C1058       C  0.49994144  0.60840250  0.37317038    -0.04400
C1059       C  0.97691905  0.61467046  0.32663542    -0.01500
C1060       C  0.97046029  0.65211289  0.30770860     0.03500
C1061       C  0.49553421  0.68153759  0.32183710    -0.04400
C1062       C  0.52018127  0.67496590  0.36681808    -0.01500
C1063       C  0.51951628  0.63957414  0.39581476     0.03500
C1064       C  0.95989056  0.58309828  0.29826176     0.38100
C1065       C  0.54699186  0.70378219  0.38245518     0.38100
C1066       C  0.53918820  0.63554020  0.44863923     0.36500
C1067       C  0.93662622  0.66058311  0.27750359     0.36600
N1068       N  0.55452484  0.63277423  0.49108855    -0.38300
N1069       N  0.90881367  0.66690390  0.25511773    -0.38300
N1070       N  0.56851430  0.72667967  0.39477796    -0.37700
N1071       N  0.94691616  0.55792119  0.27476126    -0.37700
C1072       C  0.98624040  0.87653359  0.09557516    -0.04400
C1073       C  0.95596798  0.86491605  0.13166431    -0.01500
C1074       C  0.96082191  0.83529808  0.17207347     0.03500
C1075       C  0.49528144  0.81567607  0.17432917    -0.04400
C1076       C  0.52325831  0.82362586  0.13194226    -0.01500
C1077       C  0.51852866  0.85367422  0.09260230     0.03500
C1078       C  0.91948665  0.88228292  0.12598531     0.38100
C1079       C  0.55733274  0.80133749  0.12893700     0.38100
C1080       C  0.54604276  0.85988275  0.04696807     0.36500
C1081       C  0.92984425  0.82449569  0.21007101     0.36600
N1082       N  0.56762769  0.86435592  0.01001501    -0.38300
N1083       N  0.90480231  0.81632581  0.24005714    -0.38300
N1084       N  0.58443303  0.78351277  0.12641205    -0.37700
N1085       N  0.89016281  0.89553867  0.12060621    -0.37700
C1086       C  0.49326132  0.89601031  0.35935530    -0.04400
C1087       C  0.96935554  0.86553158  0.37738733    -0.01500
C1088       C  0.96886208  0.83127477  0.34735662     0.03500
C1089       C  0.49604341  0.82452887  0.30390558    -0.04400
C1090       C  0.52274764  0.85354441  0.29058699    -0.01500
C1091       C  0.51920298  0.88994241  0.31417438     0.03500
C1092       C  0.94564853  0.86853187  0.42780193     0.38100
C1093       C  0.55649048  0.84512780  0.25804579     0.38100
C1094       C  0.54345673  0.92054072  0.29277938     0.36500
C1095       C  0.94011628  0.80307861  0.36188164     0.36600
N1096       N  0.56248357  0.94490583  0.27474448    -0.38300
N1097       N  0.91724985  0.78064541  0.37385181    -0.38300
N1098       N  0.58436957  0.83907202  0.23398793    -0.37700
N1099       N  0.92761210  0.86989799  0.46905563    -0.37700
O1100       O  0.98572187  0.93459376  0.94274480    -0.79200
O1101       O  0.57595553  0.54654791  0.55708018    -0.79200
O1102       O  0.55714756  0.98323887  0.92398293    -0.79200
O1103       O  0.51780441  0.93309517  0.56694162    -0.79200
O1104       O  0.56928287  0.54304478  0.94204297    -0.79300
O1105       O  0.95840124  0.93189088  0.55192044    -0.79200
O1106       O  0.57177364  0.98542010  0.57374781    -0.79200
O1107       O  0.49660257  0.96448407  0.86063099    -0.79200
C1108       C  0.49148297  0.93347992  0.88836785     1.10500
C1109       C  0.59059245  0.01565813  0.57492660     1.10400
C1110       C  0.57892372  0.51195979  0.91917095     1.10500
C1111       C  0.98735395  0.91508475  0.56854575     1.10400
O1112       O  0.93448555  0.00910492  0.54832088    -0.79200
O1113       O  0.49155506  0.57120346  0.95566404    -0.79300
O1114       O  0.94446334  0.50394564  0.92060097    -0.79200
O1115       O  0.02152983  0.53718870  0.63105476    -0.79200
O1116       O  0.49804382  0.57191969  0.56402025    -0.79200
O1117       O  0.91520724  0.95838275  0.96930204    -0.79200
O1118       O  0.96397995  0.48537713  0.62118775    -0.79200
O1119       O  0.00971611  0.54063096  0.88260058    -0.79200
Co1120     Co  0.96158206  0.97547448  0.99572529     1.51500
Co1121     Co  0.53199615  0.55582463  0.50479124     1.51700
Co1122     Co  0.50226045  0.49176288  0.92847683     1.51600
Co1123     Co  0.01832921  0.98570421  0.59286734     1.51500
O1124       O  0.00854239  0.00406864  0.01178267    -1.41100
C1125       C  0.93467240  0.00045862  0.60063808     1.10400
C1126       C  0.49931109  0.57144528  0.90402977     1.10500
C1127       C  0.91421978  0.48403556  0.93130955     1.10500
C1128       C  0.00699545  0.56827467  0.61447046     1.10400
C1129       C  0.49785413  0.78657204  0.77520004     0.03200
C1130       C  0.50001559  0.78313226  0.71527587     0.03200
C1131       C  0.50468825  0.74714500  0.69210082    -0.17300
C1132       C  0.50445091  0.71399066  0.72568994     0.03200
C1133       C  0.49905777  0.71666861  0.78496208     0.03200
C1134       C  0.49749807  0.75289987  0.80892415    -0.17300
H1135       H  0.49536395  0.75483317  0.85450954     0.05200
H1136       H  0.50689542  0.74464638  0.64650068     0.05200
C1137       C  0.78534968  0.50382987  0.78710184     0.03200
C1138       C  0.79022294  0.50363864  0.72719389     0.03200
C1139       C  0.75787703  0.50483075  0.69401368    -0.17300
C1140       C  0.72157925  0.50757463  0.71830247     0.03200
C1141       C  0.71710938  0.50755840  0.77809330     0.03200
C1142       C  0.74906701  0.50619132  0.81120106    -0.15900
H1143       H  0.74559192  0.50655103  0.85693853     0.05200
H1144       H  0.76094689  0.50402704  0.64829354     0.05200
C1145       C  0.68923325  0.51015000  0.67930921    -0.04400
C1146       C  0.67555640  0.97715358  0.65416236    -0.01500
C1147       C  0.64524316  0.97918689  0.61691051     0.03500
C1148       C  0.62789858  0.51463065  0.60395948    -0.04400
C1149       C  0.64491463  0.54815356  0.62404318    -0.01500
C1150       C  0.67536630  0.54578808  0.66129108     0.03500
C1151       C  0.69392067  0.94108360  0.66458105     0.38100
C1152       C  0.63166192  0.58537609  0.60660025     0.38100
C1153       C  0.69382644  0.58028948  0.67834966     0.36500
C1154       C  0.63304610  0.94441367  0.59096124     0.36600
N1155       N  0.70860878  0.60818691  0.69036980    -0.38300
N1156       N  0.62362298  0.91648639  0.57057474    -0.38300
N1157       N  0.62136646  0.61518734  0.59273001    -0.37700
N1158       N  0.70886816  0.91238341  0.67184977    -0.37700
C1159       C  0.61456422  0.51066010  0.88259118    -0.04400
C1160       C  0.63361110  0.04472516  0.86411616    -0.01500
C1161       C  0.66673384  0.04342713  0.83005901     0.03500
C1162       C  0.67990927  0.50877659  0.80900857    -0.04400
C1163       C  0.66154016  0.47481359  0.82707070    -0.01500
C1164       C  0.62978847  0.47556400  0.86445360     0.03500
C1165       C  0.62011803  0.08190725  0.87945210     0.38100
C1166       C  0.67688731  0.43862997  0.81033558     0.38100
C1167       C  0.61430237  0.43973514  0.88604190     0.36500
C1168       C  0.68902625  0.07774282  0.82059843     0.36600
N1169       N  0.60221097  0.41100561  0.90312026    -0.38300
N1170       N  0.70695205  0.10512980  0.81496713    -0.38300
N1171       N  0.68895406  0.40948371  0.79792145    -0.37700
N1172       N  0.61065445  0.11226032  0.89040892    -0.37700
C1173       C  0.89912349  0.00394089  0.63655062    -0.04400
C1174       C  0.89205563  0.97922059  0.68419411    -0.01500
C1175       C  0.85556609  0.97609064  0.70884639     0.03500
C1176       C  0.82831182  0.50402977  0.69746703    -0.04400
C1177       C  0.83693727  0.53183412  0.65478026    -0.01500
C1178       C  0.86995060  0.52907209  0.62074976     0.03500
C1179       C  0.92138663  0.95567257  0.70751519     0.38100
C1180       C  0.81169075  0.56334989  0.64501774     0.38100
C1181       C  0.87178982  0.55043127  0.56764437     0.36500
C1182       C  0.84526227  0.94137457  0.73959309     0.36600
N1183       N  0.87167295  0.56653880  0.52442860    -0.38300
N1184       N  0.83777984  0.91268385  0.76207840    -0.38300
N1185       N  0.79177727  0.58865427  0.63737829    -0.37700
N1186       N  0.94461081  0.93712727  0.72710435    -0.37700
C1187       C  0.81709243  0.50017453  0.82681946    -0.04400
C1188       C  0.81942144  0.96759513  0.86253917    -0.01500
C1189       C  0.85054738  0.96235523  0.89732658     0.03500
C1190       C  0.87869110  0.49102126  0.89990611    -0.04400
C1191       C  0.87253113  0.52615715  0.87132102    -0.01500
C1192       C  0.84310992  0.53000705  0.83269297     0.03500
C1193       C  0.79001786  0.93878814  0.86280527     0.38100
C1194       C  0.89280318  0.55976219  0.88745781     0.38100
C1195       C  0.83845325  0.56539693  0.80115129     0.36500
C1196       C  0.85227278  0.92750273  0.93106823     0.36600
N1197       N  0.83471043  0.59360454  0.77590317    -0.38300
N1198       N  0.85229506  0.89967438  0.95806519    -0.38300
N1199       N  0.90761003  0.58705551  0.90192738    -0.37700
N1200       N  0.76664187  0.91584549  0.86353638    -0.37700
C1201       C  0.50614243  0.67655677  0.69687224    -0.04400
C1202       C  0.97778820  0.66706046  0.65912330    -0.01500
C1203       C  0.97676814  0.63088524  0.63550852     0.03500
C1204       C  0.50381012  0.60292315  0.64969741    -0.04400
C1205       C  0.53165943  0.61218493  0.68882760    -0.01500
C1206       C  0.53390905  0.64941071  0.70990147     0.03500
C1207       C  0.94886240  0.69440808  0.64494095     0.38100
C1208       C  0.55860908  0.58401873  0.70680444     0.38100
C1209       C  0.56581266  0.66031890  0.74281292     0.36500
C1210       C  0.94810723  0.62366961  0.59466582     0.36600
N1211       N  0.59158262  0.66897595  0.76843961    -0.38300
N1212       N  0.92574482  0.61961815  0.56079996    -0.38300
N1213       N  0.57990013  0.56161126  0.72212875    -0.37700
N1214       N  0.92582575  0.71608318  0.63364119    -0.37700
C1215       C  0.49994032  0.60840492  0.87316919    -0.04400
C1216       C  0.97691724  0.61467058  0.82663565    -0.01500
C1217       C  0.97045625  0.65211254  0.80770921     0.03500
C1218       C  0.49553089  0.68153836  0.82183181    -0.04400
C1219       C  0.52018082  0.67496778  0.86680953    -0.01500
C1220       C  0.51951637  0.63957718  0.89580943     0.03500
C1221       C  0.95989056  0.58309728  0.79826211     0.38100
C1222       C  0.54699376  0.70378366  0.88243977     0.38100
C1223       C  0.53919141  0.63554443  0.94863144     0.36500
C1224       C  0.93662000  0.66058134  0.77750905     0.36600
N1225       N  0.55453121  0.63277900  0.99107813    -0.38300
N1226       N  0.90880562  0.66690109  0.75512759    -0.38300
N1227       N  0.56851846  0.72668064  0.89475644    -0.37700
N1228       N  0.94691772  0.55791930  0.77476165    -0.37700
C1229       C  0.98623598  0.87653567  0.59557486    -0.04400
C1230       C  0.95596288  0.86491852  0.63166323    -0.01500
C1231       C  0.96081512  0.83529837  0.67206928     0.03500
C1232       C  0.49527153  0.81567353  0.67431790    -0.04400
C1233       C  0.52324778  0.82362264  0.63192990    -0.01500
C1234       C  0.51852036  0.85367451  0.59259516     0.03500
C1235       C  0.91948275  0.88228835  0.62598718     0.38100
C1236       C  0.55731928  0.80133003  0.62891841     0.38100
C1237       C  0.54603489  0.85988483  0.54696202     0.36500
C1238       C  0.92983633  0.82449449  0.71006401     0.36600
N1239       N  0.56762046  0.86435950  0.51001024    -0.38300
N1240       N  0.90479360  0.81632273  0.74004753    -0.38300
N1241       N  0.58441711  0.78350183  0.62638823    -0.37700
N1242       N  0.89015981  0.89554662  0.62061035    -0.37700
C1243       C  0.49326513  0.89600843  0.85934721    -0.04400
C1244       C  0.96935725  0.86553157  0.87738357    -0.01500
C1245       C  0.96886017  0.83127593  0.84735051     0.03500
C1246       C  0.49604094  0.82452854  0.80389259    -0.04400
C1247       C  0.52274597  0.85354311  0.79057253    -0.01500
C1248       C  0.51920464  0.88994050  0.81416328     0.03500
C1249       C  0.94565302  0.86853117  0.92780136     0.38100
C1250       C  0.55648634  0.84512564  0.75802585     0.38100
C1251       C  0.54345971  0.92053782  0.79276868     0.36500
C1252       C  0.94011202  0.80308188  0.86187422     0.36600
N1253       N  0.56248763  0.94490212  0.77473407    -0.38300
N1254       N  0.91724368  0.78065043  0.87384326    -0.38300
N1255       N  0.58436335  0.83906877  0.73396305    -0.37700
N1256       N  0.92761925  0.86989645  0.96905773    -0.37700
loop_ 
_geom_bond_atom_site_label_1 
_geom_bond_atom_site_label_2 
_geom_bond_distance 
_geom_bond_site_symmetry_2 
_ccdc_geom_bond_type 
O1          Co21   2.104       .  S
O1          C637   1.298       .  A
O2          Co22   2.045       .  S
O2          C324   1.277       .  A
O3         Co337   1.984       .  S
O3          C325   1.273       .  A
O4         Co652   1.965       .  S
O4          C640   1.254   1_455  A
O5         Co179   2.028       .  S
O5           C11   1.277       .  A
O6         Co178   2.007   1_554  S
O6           C12   1.261       .  A
O7         Co652   1.949       .  S
O7           C10   1.257       .  A
O8         Co337   1.903   1_655  S
O8            C9   1.270       .  A
C9          O629   1.298       .  A
C9          C144   1.502       .  S
C10         O316   1.277       .  A
C10         C363   1.514       .  S
C11         O317   1.273   1_545  A
C11          C60   1.521       .  S
C12         O632   1.254       .  A
C12         C130   1.487       .  S
O13        Co178   1.976   1_554  S
O13          C26   1.267       .  A
O14        Co179   1.947   1_655  S
O14          C27   1.244       .  A
O15        Co651   2.122   1_545  S
O15          C28   1.300   1_545  A
O16        Co338   2.048   1_545  S
O16          C29   1.272       .  A
O17         Co22   1.926   1_655  S
O17         C657   1.246   1_655  A
O18         Co21   1.884       .  S
O18         C342   1.260       .  A
O19        Co338   2.036       .  S
O19         C340   1.278   1_565  A
O20        Co651   2.025   1_545  S
O20         C655   1.262       .  A
Co21        O163   2.007       .  S
Co21        O170   1.976       .  S
Co21         O25   1.999       .  S
Co22        O162   2.028   1_554  S
Co22        O171   1.947   1_454  S
Co22       O1124   2.002       .  S
Co23        O317   1.984       .  S
Co23        O322   1.903   1_455  S
Co23        O643   2.122   1_465  S
Co23        O648   2.025   1_565  S
Co23        O967   2.044   1_565  S
Co24        O632   1.965       .  S
Co24        O635   1.949       .  S
Co24        O330   2.048       .  S
Co24        O333   2.036       .  S
Co24        O182   2.048       .  S
O25       Co1121   2.002       .  S
O25        Co965   2.044       .  S
O25        Co181   2.048       .  S
C26         O333   1.278       .  A
C26          C74   1.516       .  S
C27         O648   1.262   1_655  A
C27         C116   1.477       .  S
C28         O332   1.260       .  A
C28          C91   1.504       .  S
C29         O645   1.246       .  A
C29         C733   1.496       .  S
C30         C147   1.514       .  S
C30          C31   1.425   1_655  A
C30          C35   1.413       .  A
C31         C133   1.496   1_455  S
C31          C32   1.402       .  A
C32          C33   1.396       .  A
C32          H37   1.084       .  S
C33         C102   1.499       .  S
C33          C34   1.415   1_455  A
C34         C119   1.499       .  S
C34          C35   1.409       .  A
C35          H36   1.082       .  S
C38          C88   1.494       .  S
C38          C39   1.422       .  A
C38          C43   1.405       .  A
C39          C77   1.514       .  S
C39          C40   1.412       .  A
C40          C41   1.408       .  A
C40          H45   1.085       .  S
C41          C46   1.497       .  S
C41          C42   1.418       .  A
C42          C63   1.500       .  S
C42          C43   1.400       .  A
C43          H44   1.086       .  S
C46          C51   1.413       .  A
C46         C361   1.408   1_545  A
C47          C48   1.413       .  A
C47         C360   1.408       .  A
C47          C52   1.452       .  S
C48         C363   1.427       .  A
C48          C55   1.452       .  S
C49         C324   1.514       .  S
C49          C50   1.421       .  A
C49         C362   1.427   1_545  A
C50          C51   1.418       .  A
C50          C53   1.451       .  S
C51          C54   1.449       .  S
C52          N59   1.157       .  T
C53          N58   1.158       .  T
C54          N56   1.157       .  T
C55          N57   1.157       .  T
C60          C65   1.424   1_545  A
C60         C375   1.429       .  A
C61          C62   1.415       .  A
C61         C374   1.429       .  A
C61          C66   1.449       .  S
C62         C377   1.408       .  A
C62          C69   1.452       .  S
C63          C64   1.412   1_545  A
C63         C376   1.408       .  A
C64          C65   1.420       .  A
C64          C67   1.450       .  S
C65          C68   1.451       .  S
C66          N73   1.156       .  T
C67          N72   1.157       .  T
C68          N70   1.157       .  T
C69          N71   1.157       .  T
C74          C75   1.424       .  A
C74         C393   1.423       .  A
C75          C76   1.416       .  A
C75          C80   1.452       .  S
C76         C391   1.414       .  A
C76          C83   1.448       .  S
C77          C78   1.416       .  A
C77         C390   1.414   1_545  A
C78          C79   1.415       .  A
C78          C81   1.452       .  S
C79         C388   1.423       .  A
C79          C82   1.448       .  S
C80          N87   1.158       .  T
C81          N86   1.157       .  T
C82          N84   1.157       .  T
C83          N85   1.157       .  T
C88          C93   1.409       .  A
C88         C403   1.413   1_545  A
C89          C90   1.409       .  A
C89         C402   1.413       .  A
C89          C94   1.455       .  S
C90         C405   1.423       .  A
C90          C97   1.451       .  S
C91          C92   1.417   1_565  A
C91         C404   1.423       .  A
C92          C93   1.414       .  A
C92          C95   1.447       .  S
C93          C96   1.450       .  S
C94         N101   1.157       .  T
C95         N100   1.157       .  T
C96          N98   1.157       .  T
C97          N99   1.157       .  T
C102        C107   1.416       .  A
C102        C731   1.410   1_455  A
C103        C104   1.403       .  A
C103        C730   1.410       .  A
C103        C108   1.456       .  S
C104        C733   1.424       .  A
C104        C111   1.450       .  S
C105        C657   1.496       .  S
C105        C106   1.417       .  A
C105        C732   1.424   1_455  A
C106        C107   1.416       .  A
C106        C109   1.450       .  S
C107        C110   1.450       .  S
C108        N115   1.158       .  T
C109        N114   1.158       .  T
C110        N112   1.157       .  T
C111        N113   1.155       .  T
C116        C121   1.420   1_655  A
C116        C745   1.404       .  A
C117        C118   1.405       .  A
C117        C744   1.404       .  A
C117        C122   1.450       .  S
C118        C747   1.416       .  A
C118        C125   1.448       .  S
C119        C120   1.413   1_655  A
C119        C746   1.416       .  A
C120        C121   1.408       .  A
C120        C123   1.451       .  S
C121        C124   1.453       .  S
C122        N129   1.158       .  T
C123        N128   1.157       .  T
C124        N126   1.158       .  T
C125        N127   1.157       .  T
C130        C131   1.412       .  A
C130        C763   1.411       .  A
C131        C132   1.412       .  A
C131        C136   1.450       .  S
C132        C761   1.416       .  A
C132        C139   1.450       .  S
C133        C134   1.418   1_655  A
C133        C760   1.416       .  A
C134        C135   1.406       .  A
C134        C137   1.453       .  S
C135        C758   1.411   1_455  A
C135        C138   1.452       .  S
C136        N143   1.157       .  T
C137        N142   1.157       .  T
C138        N140   1.157       .  T
C139        N141   1.157       .  T
C144        C149   1.416   1_655  A
C144        C773   1.418       .  A
C145        C146   1.414       .  A
C145        C772   1.418       .  A
C145        C150   1.450       .  S
C146        C775   1.420       .  A
C146        C153   1.452       .  S
C147        C148   1.417   1_655  A
C147        C774   1.420       .  A
C148        C149   1.415       .  A
C148        C151   1.448       .  S
C149        C152   1.451       .  S
C150        N157   1.157       .  T
C151        N156   1.157       .  T
C152        N154   1.158       .  T
C153        N155   1.158       .  T
O158       Co178   2.104       .  S
O158        C794   1.298       .  A
O159       Co179   2.045       .  S
O159        C481   1.277       .  A
O160       Co494   1.984       .  S
O160        C482   1.273       .  A
O161       Co809   1.965       .  S
O161        C797   1.254   1_455  A
O162        C168   1.277       .  A
O163        C169   1.261       .  A
O164       Co809   1.949       .  S
O164        C167   1.257       .  A
O165       Co494   1.903   1_655  S
O165        C166   1.270       .  A
C166        O786   1.298       .  A
C166        C301   1.502       .  S
C167        O473   1.277       .  A
C167        C520   1.514       .  S
C168        O474   1.273   1_545  A
C168        C217   1.521       .  S
C169        O789   1.254       .  A
C169        C287   1.487       .  S
O170        C183   1.267       .  A
O171        C184   1.244       .  A
O172       Co808   2.122   1_545  S
O172        C185   1.300   1_545  A
O173       Co495   2.048   1_545  S
O173        C186   1.272       .  A
O174       Co179   1.926   1_655  S
O174        C814   1.246   1_655  A
O175       Co178   1.884       .  S
O175        C499   1.260       .  A
O176       Co495   2.036       .  S
O176        C497   1.278   1_565  A
O177       Co808   2.025   1_545  S
O177        C812   1.262       .  A
Co178       O182   1.999   1_556  S
Co179       O967   2.002       .  S
Co180       O474   1.984       .  S
Co180       O479   1.903   1_455  S
Co180       O800   2.122   1_465  S
Co180       O805   2.025   1_565  S
Co180      O1124   2.044   1_566  S
Co181       O789   1.965       .  S
Co181       O792   1.949       .  S
Co181       O487   2.048       .  S
Co181       O490   2.036       .  S
O182       Co964   2.002       .  S
O182      Co1122   2.044   1_554  S
C183        O490   1.278       .  A
C183        C231   1.516       .  S
C184        O805   1.262   1_655  A
C184        C273   1.477       .  S
C185        O489   1.260       .  A
C185        C248   1.504       .  S
C186        O802   1.246       .  A
C186        C890   1.496       .  S
C187        C304   1.514       .  S
C187        C188   1.425   1_655  A
C187        C192   1.413       .  A
C188        C290   1.496   1_455  S
C188        C189   1.402       .  A
C189        C190   1.396       .  A
C189        H194   1.084       .  S
C190        C259   1.499       .  S
C190        C191   1.415   1_455  A
C191        C276   1.499       .  S
C191        C192   1.409       .  A
C192        H193   1.082       .  S
C195        C245   1.494       .  S
C195        C196   1.422       .  A
C195        C200   1.405       .  A
C196        C234   1.514       .  S
C196        C197   1.412       .  A
C197        C198   1.408       .  A
C197        H202   1.084       .  S
C198        C203   1.497       .  S
C198        C199   1.418       .  A
C199        C220   1.500       .  S
C199        C200   1.400       .  A
C200        H201   1.085       .  S
C203        C518   1.408   1_545  A
C203        C208   1.413       .  A
C204        C517   1.408       .  A
C204        C205   1.413       .  A
C204        C209   1.452       .  S
C205        C520   1.427       .  A
C205        C212   1.452       .  S
C206        C481   1.514       .  S
C206        C519   1.427   1_545  A
C206        C207   1.421       .  A
C207        C208   1.418       .  A
C207        C210   1.451       .  S
C208        C211   1.449       .  S
C209        N216   1.157       .  T
C210        N215   1.158       .  T
C211        N213   1.157       .  T
C212        N214   1.157       .  T
C217        C532   1.429       .  A
C217        C222   1.424   1_545  A
C218        C531   1.429       .  A
C218        C219   1.415       .  A
C218        C223   1.449       .  S
C219        C534   1.408       .  A
C219        C226   1.452       .  S
C220        C533   1.408       .  A
C220        C221   1.412   1_545  A
C221        C222   1.420       .  A
C221        C224   1.450       .  S
C222        C225   1.451       .  S
C223        N230   1.156       .  T
C224        N229   1.157       .  T
C225        N227   1.157       .  T
C226        N228   1.157       .  T
C231        C232   1.424       .  A
C231        C550   1.423       .  A
C232        C233   1.416       .  A
C232        C237   1.452       .  S
C233        C548   1.414       .  A
C233        C240   1.448       .  S
C234        C547   1.414   1_545  A
C234        C235   1.416       .  A
C235        C236   1.415       .  A
C235        C238   1.452       .  S
C236        C545   1.423       .  A
C236        C239   1.448       .  S
C237        N244   1.158       .  T
C238        N243   1.157       .  T
C239        N241   1.157       .  T
C240        N242   1.157       .  T
C245        C560   1.413   1_545  A
C245        C250   1.409       .  A
C246        C559   1.413       .  A
C246        C247   1.409       .  A
C246        C251   1.455       .  S
C247        C562   1.423       .  A
C247        C254   1.451       .  S
C248        C561   1.423       .  A
C248        C249   1.417   1_565  A
C249        C250   1.414       .  A
C249        C252   1.447       .  S
C250        C253   1.450       .  S
C251        N258   1.157       .  T
C252        N257   1.157       .  T
C253        N255   1.157       .  T
C254        N256   1.157       .  T
C259        C888   1.410   1_455  A
C259        C264   1.416       .  A
C260        C887   1.410       .  A
C260        C261   1.403       .  A
C260        C265   1.456       .  S
C261        C890   1.424       .  A
C261        C268   1.450       .  S
C262        C814   1.496       .  S
C262        C889   1.424   1_455  A
C262        C263   1.417       .  A
C263        C264   1.416       .  A
C263        C266   1.450       .  S
C264        C267   1.450       .  S
C265        N272   1.158       .  T
C266        N271   1.158       .  T
C267        N269   1.157       .  T
C268        N270   1.155       .  T
C273        C902   1.404       .  A
C273        C278   1.420   1_655  A
C274        C901   1.404       .  A
C274        C275   1.405       .  A
C274        C279   1.450       .  S
C275        C904   1.416       .  A
C275        C282   1.448       .  S
C276        C903   1.416       .  A
C276        C277   1.413   1_655  A
C277        C278   1.408       .  A
C277        C280   1.451       .  S
C278        C281   1.453       .  S
C279        N286   1.158       .  T
C280        N285   1.157       .  T
C281        N283   1.158       .  T
C282        N284   1.157       .  T
C287        C288   1.412       .  A
C287        C920   1.411       .  A
C288        C289   1.412       .  A
C288        C293   1.450       .  S
C289        C918   1.416       .  A
C289        C296   1.450       .  S
C290        C917   1.416       .  A
C290        C291   1.418   1_655  A
C291        C292   1.406       .  A
C291        C294   1.453       .  S
C292        C915   1.411   1_455  A
C292        C295   1.452       .  S
C293        N300   1.157       .  T
C294        N299   1.157       .  T
C295        N297   1.157       .  T
C296        N298   1.157       .  T
C301        C930   1.418       .  A
C301        C306   1.416   1_655  A
C302        C929   1.418       .  A
C302        C303   1.414       .  A
C302        C307   1.450       .  S
C303        C932   1.420       .  A
C303        C310   1.452       .  S
C304        C931   1.420       .  A
C304        C305   1.417   1_655  A
C305        C306   1.415       .  A
C305        C308   1.448       .  S
C306        C309   1.451       .  S
C307        N314   1.157       .  T
C308        N313   1.157       .  T
C309        N311   1.158       .  T
C310        N312   1.158       .  T
O315       Co335   2.104       .  S
O315        C951   1.298       .  A
O316       Co336   2.045       .  S
O318       Co966   1.965       .  S
O318        C954   1.254   1_455  A
O319       Co493   2.028       .  S
O319        C325   1.277       .  A
O320       Co492   2.007   1_554  S
O320        C326   1.261       .  A
O321       Co966   1.949       .  S
O321        C324   1.257   1_565  A
O322        C323   1.270       .  A
C323        O943   1.298       .  A
C323        C458   1.502       .  S
C325        C374   1.521       .  S
C326        O946   1.254       .  A
C326        C444   1.487       .  S
O327       Co492   1.976   1_544  S
O327        C340   1.267       .  A
O328       Co493   1.947   1_655  S
O328        C341   1.244       .  A
O329       Co965   2.122       .  S
O329        C342   1.300       .  A
O330        C343   1.272       .  A
O331       Co336   1.926   1_655  S
O331        C971   1.246   1_655  A
O332       Co335   1.884       .  S
O334       Co965   2.025       .  S
O334        C969   1.262       .  A
Co335       O477   2.007       .  S
Co335       O484   1.976   1_565  S
Co335       O339   1.999   1_565  S
Co336       O476   2.028   1_554  S
Co336       O485   1.947   1_454  S
Co336       O810   2.002       .  S
Co337       O957   2.122   1_455  S
Co337       O962   2.025       .  S
Co337       O653   2.044       .  S
Co338       O946   1.965       .  S
Co338       O949   1.949       .  S
Co338       O496   2.048   1_565  S
O339       Co807   2.002       .  S
O339       Co651   2.044   1_545  S
O339       Co495   2.048   1_545  S
C340        C388   1.516       .  S
C341        O962   1.262   1_655  A
C341        C430   1.477       .  S
C342        C405   1.504       .  S
C343        O959   1.246       .  A
C343       C1047   1.496       .  S
C344        C461   1.514       .  S
C344        C345   1.425   1_655  A
C344        C349   1.413       .  A
C345        C447   1.496   1_455  S
C345        C346   1.402       .  A
C346        C347   1.396       .  A
C346        H351   1.084       .  S
C347        C416   1.499       .  S
C347        C348   1.415   1_455  A
C348        C433   1.499       .  S
C348        C349   1.409       .  A
C349        H350   1.082       .  S
C352        C402   1.494       .  S
C352        C353   1.423       .  A
C352        C357   1.405       .  A
C353        C391   1.514       .  S
C353        C354   1.412       .  A
C354        C355   1.408       .  A
C354        H359   1.085       .  S
C355        C360   1.497       .  S
C355        C356   1.418       .  A
C356        C377   1.500       .  S
C356        C357   1.400       .  A
C357        H358   1.086       .  S
C360        C365   1.413       .  A
C361        C362   1.413       .  A
C361        C366   1.452       .  S
C362        C369   1.452       .  S
C363        C364   1.421       .  A
C364        C365   1.418       .  A
C364        C367   1.451       .  S
C365        C368   1.449       .  S
C366        N373   1.157       .  T
C367        N372   1.158       .  T
C368        N370   1.157       .  T
C369        N371   1.157       .  T
C374        C379   1.424       .  A
C375        C376   1.415       .  A
C375        C380   1.449       .  S
C376        C383   1.452       .  S
C377        C378   1.412       .  A
C378        C379   1.420       .  A
C378        C381   1.450       .  S
C379        C382   1.451       .  S
C380        N387   1.156       .  T
C381        N386   1.157       .  T
C382        N384   1.157       .  T
C383        N385   1.157       .  T
C388        C389   1.424   1_545  A
C389        C390   1.416       .  A
C389        C394   1.452       .  S
C390        C397   1.448       .  S
C391        C392   1.416       .  A
C392        C393   1.415       .  A
C392        C395   1.452       .  S
C393        C396   1.448       .  S
C394        N401   1.158       .  T
C395        N400   1.157       .  T
C396        N398   1.157       .  T
C397        N399   1.157       .  T
C402        C407   1.409       .  A
C403        C404   1.409       .  A
C403        C408   1.455       .  S
C404        C411   1.451       .  S
C405        C406   1.417       .  A
C406        C407   1.414       .  A
C406        C409   1.447       .  S
C407        C410   1.450       .  S
C408        N415   1.157       .  T
C409        N414   1.157       .  T
C410        N412   1.157       .  T
C411        N413   1.157       .  T
C416       C1045   1.410   1_455  A
C416        C421   1.416       .  A
C417       C1044   1.410       .  A
C417        C418   1.403       .  A
C417        C422   1.456       .  S
C418       C1047   1.424       .  A
C418        C425   1.450       .  S
C419        C971   1.496       .  S
C419       C1046   1.424   1_455  A
C419        C420   1.417       .  A
C420        C421   1.416       .  A
C420        C423   1.450       .  S
C421        C424   1.450       .  S
C422        N429   1.158       .  T
C423        N428   1.158       .  T
C424        N426   1.157       .  T
C425        N427   1.155       .  T
C430       C1059   1.404       .  A
C430        C435   1.420   1_655  A
C431       C1058   1.404       .  A
C431        C432   1.405       .  A
C431        C436   1.450       .  S
C432       C1061   1.416       .  A
C432        C439   1.448       .  S
C433       C1060   1.416       .  A
C433        C434   1.413   1_655  A
C434        C435   1.408       .  A
C434        C437   1.451       .  S
C435        C438   1.453       .  S
C436        N443   1.158       .  T
C437        N442   1.157       .  T
C438        N440   1.158       .  T
C439        N441   1.157       .  T
C444        C445   1.412       .  A
C444       C1077   1.411       .  A
C445        C446   1.412       .  A
C445        C450   1.450       .  S
C446       C1075   1.416       .  A
C446        C453   1.450       .  S
C447       C1074   1.416       .  A
C447        C448   1.418   1_655  A
C448        C449   1.406       .  A
C448        C451   1.453       .  S
C449       C1072   1.411   1_455  A
C449        C452   1.452       .  S
C450        N457   1.157       .  T
C451        N456   1.157       .  T
C452        N454   1.157       .  T
C453        N455   1.157       .  T
C458       C1087   1.418       .  A
C458        C463   1.416   1_655  A
C459       C1086   1.418       .  A
C459        C460   1.414       .  A
C459        C464   1.450       .  S
C460       C1089   1.420       .  A
C460        C467   1.452       .  S
C461       C1088   1.420       .  A
C461        C462   1.417   1_655  A
C462        C463   1.415       .  A
C462        C465   1.448       .  S
C463        C466   1.451       .  S
C464        N471   1.157       .  T
C465        N470   1.157       .  T
C466        N468   1.158       .  T
C467        N469   1.158       .  T
O472       Co492   2.104       .  S
O472       C1108   1.298       .  A
O473       Co493   2.045       .  S
O475      Co1123   1.965       .  S
O475       C1111   1.254   1_455  A
O476        C482   1.277       .  A
O477        C483   1.261       .  A
O478      Co1123   1.949       .  S
O478        C481   1.257   1_565  A
O479        C480   1.270       .  A
C480       O1100   1.298       .  A
C480        C615   1.502       .  S
C482        C531   1.521       .  S
C483       O1103   1.254       .  A
C483        C601   1.487       .  S
O484        C497   1.267       .  A
O485        C498   1.244       .  A
O486      Co1122   2.122       .  S
O486        C499   1.300       .  A
O487        C500   1.272       .  A
O488       Co493   1.926   1_655  S
O488       C1128   1.246   1_655  A
O489       Co492   1.884       .  S
O491      Co1122   2.025       .  S
O491       C1126   1.262       .  A
Co492       O496   1.999   1_566  S
Co493       O653   2.002       .  S
Co494      O1114   2.122   1_455  S
Co494      O1119   2.025       .  S
Co494       O810   2.044   1_556  S
Co495      O1103   1.965       .  S
Co495      O1106   1.949       .  S
O496       Co650   2.002       .  S
O496       Co808   2.044   1_544  S
C497        C545   1.516       .  S
C498       O1119   1.262   1_655  A
C498        C587   1.477       .  S
C499        C562   1.504       .  S
C500       O1116   1.246       .  A
C500       C1204   1.496       .  S
C501        C618   1.514       .  S
C501        C502   1.425   1_655  A
C501        C506   1.413       .  A
C502        C604   1.496   1_455  S
C502        C503   1.402       .  A
C503        C504   1.396       .  A
C503        H508   1.084       .  S
C504        C573   1.499       .  S
C504        C505   1.415   1_455  A
C505        C590   1.499       .  S
C505        C506   1.409       .  A
C506        H507   1.082       .  S
C509        C559   1.494       .  S
C509        C510   1.422       .  A
C509        C514   1.405       .  A
C510        C548   1.514       .  S
C510        C511   1.412       .  A
C511        C512   1.408       .  A
C511        H516   1.084       .  S
C512        C517   1.497       .  S
C512        C513   1.418       .  A
C513        C534   1.500       .  S
C513        C514   1.400       .  A
C514        H515   1.085       .  S
C517        C522   1.413       .  A
C518        C519   1.413       .  A
C518        C523   1.452       .  S
C519        C526   1.452       .  S
C520        C521   1.421       .  A
C521        C522   1.418       .  A
C521        C524   1.451       .  S
C522        C525   1.449       .  S
C523        N530   1.157       .  T
C524        N529   1.158       .  T
C525        N527   1.157       .  T
C526        N528   1.157       .  T
C531        C536   1.424       .  A
C532        C533   1.415       .  A
C532        C537   1.449       .  S
C533        C540   1.452       .  S
C534        C535   1.412       .  A
C535        C536   1.420       .  A
C535        C538   1.450       .  S
C536        C539   1.451       .  S
C537        N544   1.156       .  T
C538        N543   1.157       .  T
C539        N541   1.157       .  T
C540        N542   1.157       .  T
C545        C546   1.424   1_545  A
C546        C547   1.416       .  A
C546        C551   1.452       .  S
C547        C554   1.448       .  S
C548        C549   1.416       .  A
C549        C550   1.415       .  A
C549        C552   1.452       .  S
C550        C553   1.448       .  S
C551        N558   1.158       .  T
C552        N557   1.157       .  T
C553        N555   1.157       .  T
C554        N556   1.157       .  T
C559        C564   1.409       .  A
C560        C561   1.409       .  A
C560        C565   1.455       .  S
C561        C568   1.451       .  S
C562        C563   1.417       .  A
C563        C564   1.414       .  A
C563        C566   1.447       .  S
C564        C567   1.450       .  S
C565        N572   1.157       .  T
C566        N571   1.157       .  T
C567        N569   1.157       .  T
C568        N570   1.157       .  T
C573       C1202   1.410   1_455  A
C573        C578   1.416       .  A
C574       C1201   1.410       .  A
C574        C575   1.403       .  A
C574        C579   1.456       .  S
C575       C1204   1.424       .  A
C575        C582   1.450       .  S
C576       C1128   1.496       .  S
C576       C1203   1.424   1_455  A
C576        C577   1.417       .  A
C577        C578   1.416       .  A
C577        C580   1.450       .  S
C578        C581   1.450       .  S
C579        N586   1.158       .  T
C580        N585   1.158       .  T
C581        N583   1.157       .  T
C582        N584   1.155       .  T
C587       C1216   1.404       .  A
C587        C592   1.420   1_655  A
C588       C1215   1.404       .  A
C588        C589   1.405       .  A
C588        C593   1.450       .  S
C589       C1218   1.416       .  A
C589        C596   1.448       .  S
C590       C1217   1.416       .  A
C590        C591   1.413   1_655  A
C591        C592   1.408       .  A
C591        C594   1.451       .  S
C592        C595   1.453       .  S
C593        N600   1.158       .  T
C594        N599   1.157       .  T
C595        N597   1.158       .  T
C596        N598   1.157       .  T
C601        C602   1.412       .  A
C601       C1234   1.411       .  A
C602        C603   1.412       .  A
C602        C607   1.450       .  S
C603       C1232   1.416       .  A
C603        C610   1.450       .  S
C604       C1231   1.416       .  A
C604        C605   1.418   1_655  A
C605        C606   1.406       .  A
C605        C608   1.453       .  S
C606       C1229   1.411   1_455  A
C606        C609   1.452       .  S
C607        N614   1.157       .  T
C608        N613   1.157       .  T
C609        N611   1.157       .  T
C610        N612   1.157       .  T
C615       C1244   1.418       .  A
C615        C620   1.416   1_655  A
C616       C1243   1.418       .  A
C616        C617   1.414       .  A
C616        C621   1.450       .  S
C617       C1246   1.420       .  A
C617        C624   1.452       .  S
C618       C1245   1.420       .  A
C618        C619   1.417   1_655  A
C619        C620   1.415       .  A
C619        C622   1.448       .  S
C620        C623   1.451       .  S
C621        N628   1.157       .  T
C622        N627   1.157       .  T
C623        N625   1.158       .  T
C624        N626   1.158       .  T
O629       Co649   2.104       .  S
O630       Co650   2.045       .  S
O630        C952   1.277       .  A
O631       Co965   1.984       .  S
O631        C953   1.273       .  A
O633       Co807   2.028       .  S
O633        C639   1.277       .  A
O634       Co806   2.007   1_554  S
O634        C640   1.261       .  A
O635        C638   1.257       .  A
O636       Co965   1.903       .  S
O636        C637   1.270       .  A
C637        C772   1.502       .  S
C638        O944   1.277       .  A
C638        C991   1.514       .  S
C639        O945   1.273   1_545  A
C639        C688   1.521       .  S
C640        C758   1.487       .  S
O641       Co806   1.976   1_554  S
O641        C654   1.267       .  A
O642       Co807   1.947       .  S
O642        C655   1.244       .  A
O643        C656   1.300   1_545  A
O644       Co966   2.048   1_545  S
O644        C657   1.272       .  A
O645       Co650   1.926       .  S
O646       Co649   1.884       .  S
O646        C970   1.260       .  A
O647       Co966   2.036   1_655  S
O647        C968   1.278   1_565  A
Co649       O791   2.007       .  S
Co649       O798   1.976       .  S
Co649       O653   1.999   1_655  S
Co650       O790   2.028   1_554  S
Co650       O799   1.947   1_554  S
Co651       O945   1.984       .  S
Co651       O950   1.903       .  S
Co652       O958   2.048       .  S
Co652       O961   2.036   1_455  S
Co652       O810   2.048       .  S
O653       Co809   2.048       .  S
C654        O961   1.278       .  A
C654        C702   1.516       .  S
C655        C744   1.477       .  S
C656        O960   1.260       .  A
C656        C719   1.504       .  S
C658        C775   1.514       .  S
C658        C659   1.425       .  A
C658        C663   1.413       .  A
C659        C761   1.496       .  S
C659        C660   1.402       .  A
C660        C661   1.396       .  A
C660        H665   1.084       .  S
C661        C730   1.499       .  S
C661        C662   1.415       .  A
C662        C747   1.499       .  S
C662        C663   1.409       .  A
C663        H664   1.082       .  S
C666        C716   1.494       .  S
C666        C667   1.422       .  A
C666        C671   1.405       .  A
C667        C705   1.514       .  S
C667        C668   1.412       .  A
C668        C669   1.408       .  A
C668        H673   1.085       .  S
C669        C674   1.497       .  S
C669        C670   1.418       .  A
C670        C691   1.500       .  S
C670        C671   1.400       .  A
C671        H672   1.086       .  S
C674        C989   1.408   1_545  A
C674        C679   1.413       .  A
C675        C988   1.408       .  A
C675        C676   1.413       .  A
C675        C680   1.452       .  S
C676        C991   1.427       .  A
C676        C683   1.452       .  S
C677        C952   1.514       .  S
C677        C990   1.427   1_545  A
C677        C678   1.421       .  A
C678        C679   1.418       .  A
C678        C681   1.451       .  S
C679        C682   1.449       .  S
C680        N687   1.157       .  T
C681        N686   1.158       .  T
C682        N684   1.157       .  T
C683        N685   1.157       .  T
C688       C1003   1.429       .  A
C688        C693   1.424   1_545  A
C689       C1002   1.429       .  A
C689        C690   1.415       .  A
C689        C694   1.449       .  S
C690       C1005   1.408       .  A
C690        C697   1.452       .  S
C691       C1004   1.408       .  A
C691        C692   1.412   1_545  A
C692        C693   1.420       .  A
C692        C695   1.450       .  S
C693        C696   1.451       .  S
C694        N701   1.156       .  T
C695        N700   1.157       .  T
C696        N698   1.157       .  T
C697        N699   1.157       .  T
C702        C703   1.424       .  A
C702       C1021   1.423       .  A
C703        C704   1.416       .  A
C703        C708   1.452       .  S
C704       C1019   1.414       .  A
C704        C711   1.448       .  S
C705       C1018   1.414   1_545  A
C705        C706   1.416       .  A
C706        C707   1.415       .  A
C706        C709   1.452       .  S
C707       C1016   1.423       .  A
C707        C710   1.448       .  S
C708        N715   1.158       .  T
C709        N714   1.157       .  T
C710        N712   1.157       .  T
C711        N713   1.157       .  T
C716       C1031   1.413   1_545  A
C716        C721   1.409       .  A
C717       C1030   1.413       .  A
C717        C718   1.409       .  A
C717        C722   1.455       .  S
C718       C1033   1.423       .  A
C718        C725   1.451       .  S
C719       C1032   1.423       .  A
C719        C720   1.417   1_565  A
C720        C721   1.414       .  A
C720        C723   1.447       .  S
C721        C724   1.450       .  S
C722        N729   1.157       .  T
C723        N728   1.157       .  T
C724        N726   1.157       .  T
C725        N727   1.157       .  T
C730        C735   1.416       .  A
C731        C732   1.403       .  A
C731        C736   1.456       .  S
C732        C739   1.450       .  S
C733        C734   1.417       .  A
C734        C735   1.416       .  A
C734        C737   1.450       .  S
C735        C738   1.450       .  S
C736        N743   1.158       .  T
C737        N742   1.158       .  T
C738        N740   1.157       .  T
C739        N741   1.155       .  T
C744        C749   1.420       .  A
C745        C746   1.405       .  A
C745        C750   1.450       .  S
C746        C753   1.448       .  S
C747        C748   1.413       .  A
C748        C749   1.408       .  A
C748        C751   1.451       .  S
C749        C752   1.453       .  S
C750        N757   1.158       .  T
C751        N756   1.157       .  T
C752        N754   1.158       .  T
C753        N755   1.157       .  T
C758        C759   1.412       .  A
C759        C760   1.412       .  A
C759        C764   1.450       .  S
C760        C767   1.450       .  S
C761        C762   1.418       .  A
C762        C763   1.406       .  A
C762        C765   1.453       .  S
C763        C766   1.452       .  S
C764        N771   1.157       .  T
C765        N770   1.157       .  T
C766        N768   1.157       .  T
C767        N769   1.157       .  T
C772        C777   1.416       .  A
C773        C774   1.414       .  A
C773        C778   1.450       .  S
C774        C781   1.452       .  S
C775        C776   1.417       .  A
C776        C777   1.415       .  A
C776        C779   1.448       .  S
C777        C780   1.451       .  S
C778        N785   1.157       .  T
C779        N784   1.157       .  T
C780        N782   1.158       .  T
C781        N783   1.158       .  T
O786       Co806   2.104       .  S
O787       Co807   2.045       .  S
O787       C1109   1.277       .  A
O788      Co1122   1.984       .  S
O788       C1110   1.273       .  A
O790        C796   1.277       .  A
O791        C797   1.261       .  A
O792        C795   1.257       .  A
O793      Co1122   1.903       .  S
O793        C794   1.270       .  A
C794        C929   1.502       .  S
C795       O1101   1.277       .  A
C795       C1148   1.514       .  S
C796       O1102   1.273   1_545  A
C796        C845   1.521       .  S
C797        C915   1.487       .  S
O798        C811   1.267       .  A
O799        C812   1.244       .  A
O800        C813   1.300   1_545  A
O801      Co1123   2.048   1_545  S
O801        C814   1.272       .  A
O802       Co807   1.926       .  S
O803       Co806   1.884       .  S
O803       C1127   1.260       .  A
O804      Co1123   2.036   1_655  S
O804       C1125   1.278   1_565  A
Co806       O810   1.999   1_656  S
Co808      O1102   1.984       .  S
Co808      O1107   1.903       .  S
Co809      O1115   2.048       .  S
Co809      O1118   2.036   1_455  S
C811       O1118   1.278       .  A
C811        C859   1.516       .  S
C812        C901   1.477       .  S
C813       O1117   1.260       .  A
C813        C876   1.504       .  S
C815        C932   1.514       .  S
C815        C816   1.425       .  A
C815        C820   1.413       .  A
C816        C918   1.496       .  S
C816        C817   1.402       .  A
C817        C818   1.396       .  A
C817        H822   1.084       .  S
C818        C887   1.499       .  S
C818        C819   1.415       .  A
C819        C904   1.499       .  S
C819        C820   1.409       .  A
C820        H821   1.082       .  S
C823        C873   1.494       .  S
C823        C824   1.422       .  A
C823        C828   1.405       .  A
C824        C862   1.514       .  S
C824        C825   1.412       .  A
C825        C826   1.408       .  A
C825        H830   1.084       .  S
C826        C831   1.497       .  S
C826        C827   1.418       .  A
C827        C848   1.500       .  S
C827        C828   1.400       .  A
C828        H829   1.085       .  S
C831       C1146   1.408   1_545  A
C831        C836   1.413       .  A
C832       C1145   1.408       .  A
C832        C833   1.413       .  A
C832        C837   1.452       .  S
C833       C1148   1.427       .  A
C833        C840   1.452       .  S
C834       C1109   1.514       .  S
C834       C1147   1.427   1_545  A
C834        C835   1.421       .  A
C835        C836   1.418       .  A
C835        C838   1.451       .  S
C836        C839   1.449       .  S
C837        N844   1.157       .  T
C838        N843   1.158       .  T
C839        N841   1.157       .  T
C840        N842   1.157       .  T
C845       C1160   1.429       .  A
C845        C850   1.424   1_545  A
C846       C1159   1.429       .  A
C846        C847   1.415       .  A
C846        C851   1.449       .  S
C847       C1162   1.408       .  A
C847        C854   1.452       .  S
C848       C1161   1.408       .  A
C848        C849   1.412   1_545  A
C849        C850   1.420       .  A
C849        C852   1.450       .  S
C850        C853   1.451       .  S
C851        N858   1.156       .  T
C852        N857   1.157       .  T
C853        N855   1.157       .  T
C854        N856   1.157       .  T
C859        C860   1.424       .  A
C859       C1178   1.423       .  A
C860        C861   1.416       .  A
C860        C865   1.452       .  S
C861       C1176   1.414       .  A
C861        C868   1.448       .  S
C862       C1175   1.414   1_545  A
C862        C863   1.416       .  A
C863        C864   1.415       .  A
C863        C866   1.452       .  S
C864       C1173   1.423       .  A
C864        C867   1.448       .  S
C865        N872   1.158       .  T
C866        N871   1.157       .  T
C867        N869   1.157       .  T
C868        N870   1.157       .  T
C873       C1188   1.413   1_545  A
C873        C878   1.409       .  A
C874       C1187   1.413       .  A
C874        C875   1.409       .  A
C874        C879   1.455       .  S
C875       C1190   1.423       .  A
C875        C882   1.451       .  S
C876       C1189   1.423       .  A
C876        C877   1.417   1_565  A
C877        C878   1.414       .  A
C877        C880   1.447       .  S
C878        C881   1.450       .  S
C879        N886   1.157       .  T
C880        N885   1.157       .  T
C881        N883   1.157       .  T
C882        N884   1.157       .  T
C887        C892   1.416       .  A
C888        C889   1.403       .  A
C888        C893   1.456       .  S
C889        C896   1.450       .  S
C890        C891   1.417       .  A
C891        C892   1.416       .  A
C891        C894   1.450       .  S
C892        C895   1.450       .  S
C893        N900   1.158       .  T
C894        N899   1.158       .  T
C895        N897   1.157       .  T
C896        N898   1.155       .  T
C901        C906   1.420       .  A
C902        C903   1.405       .  A
C902        C907   1.450       .  S
C903        C910   1.448       .  S
C904        C905   1.413       .  A
C905        C906   1.408       .  A
C905        C908   1.451       .  S
C906        C909   1.453       .  S
C907        N914   1.158       .  T
C908        N913   1.157       .  T
C909        N911   1.158       .  T
C910        N912   1.157       .  T
C915        C916   1.412       .  A
C916        C917   1.412       .  A
C916        C921   1.450       .  S
C917        C924   1.450       .  S
C918        C919   1.418       .  A
C919        C920   1.406       .  A
C919        C922   1.453       .  S
C920        C923   1.452       .  S
C921        N928   1.157       .  T
C922        N927   1.157       .  T
C923        N925   1.157       .  T
C924        N926   1.157       .  T
C929        C934   1.416       .  A
C930        C931   1.414       .  A
C930        C935   1.450       .  S
C931        C938   1.452       .  S
C932        C933   1.417       .  A
C933        C934   1.415       .  A
C933        C936   1.448       .  S
C934        C937   1.451       .  S
C935        N942   1.157       .  T
C936        N941   1.157       .  T
C937        N939   1.158       .  T
C938        N940   1.158       .  T
O943       Co963   2.104       .  S
O944       Co964   2.045       .  S
O947      Co1121   2.028       .  S
O947        C953   1.277       .  A
O948      Co1120   2.007   1_554  S
O948        C954   1.261       .  A
O949        C952   1.257   1_565  A
O950        C951   1.270       .  A
C951       C1086   1.502       .  S
C953       C1002   1.521       .  S
C954       C1072   1.487       .  S
O955      Co1120   1.976   1_544  S
O955        C968   1.267       .  A
O956      Co1121   1.947       .  S
O956        C969   1.244       .  A
O957        C970   1.300       .  A
O958        C971   1.272       .  A
O959       Co964   1.926       .  S
O960       Co963   1.884       .  S
Co963      O1105   2.007       .  S
Co963      O1112   1.976   1_565  S
Co963       O967   1.999   1_665  S
Co964      O1104   2.028   1_554  S
Co964      O1113   1.947   1_554  S
Co966      O1124   2.048   1_565  S
O967      Co1123   2.048   1_545  S
C968       C1016   1.516       .  S
C969       C1058   1.477       .  S
C970       C1033   1.504       .  S
C972       C1089   1.514       .  S
C972        C973   1.425       .  A
C972        C977   1.413       .  A
C973       C1075   1.496       .  S
C973        C974   1.402       .  A
C974        C975   1.396       .  A
C974        H979   1.084       .  S
C975       C1044   1.499       .  S
C975        C976   1.415       .  A
C976       C1061   1.499       .  S
C976        C977   1.409       .  A
C977        H978   1.082       .  S
C980       C1030   1.494       .  S
C980        C981   1.423       .  A
C980        C985   1.405       .  A
C981       C1019   1.514       .  S
C981        C982   1.412       .  A
C982        C983   1.408       .  A
C982        H987   1.085       .  S
C983        C988   1.497       .  S
C983        C984   1.418       .  A
C984       C1005   1.500       .  S
C984        C985   1.400       .  A
C985        H986   1.086       .  S
C988        C993   1.413       .  A
C989        C990   1.413       .  A
C989        C994   1.452       .  S
C990        C997   1.452       .  S
C991        C992   1.421       .  A
C992        C993   1.418       .  A
C992        C995   1.451       .  S
C993        C996   1.449       .  S
C994       N1001   1.157       .  T
C995       N1000   1.158       .  T
C996        N998   1.157       .  T
C997        N999   1.157       .  T
C1002      C1007   1.424       .  A
C1003      C1004   1.415       .  A
C1003      C1008   1.449       .  S
C1004      C1011   1.452       .  S
C1005      C1006   1.412       .  A
C1006      C1007   1.420       .  A
C1006      C1009   1.450       .  S
C1007      C1010   1.451       .  S
C1008      N1015   1.156       .  T
C1009      N1014   1.157       .  T
C1010      N1012   1.157       .  T
C1011      N1013   1.157       .  T
C1016      C1017   1.424   1_545  A
C1017      C1018   1.416       .  A
C1017      C1022   1.452       .  S
C1018      C1025   1.448       .  S
C1019      C1020   1.416       .  A
C1020      C1021   1.415       .  A
C1020      C1023   1.452       .  S
C1021      C1024   1.448       .  S
C1022      N1029   1.158       .  T
C1023      N1028   1.157       .  T
C1024      N1026   1.157       .  T
C1025      N1027   1.157       .  T
C1030      C1035   1.409       .  A
C1031      C1032   1.409       .  A
C1031      C1036   1.455       .  S
C1032      C1039   1.451       .  S
C1033      C1034   1.417       .  A
C1034      C1035   1.414       .  A
C1034      C1037   1.447       .  S
C1035      C1038   1.450       .  S
C1036      N1043   1.157       .  T
C1037      N1042   1.157       .  T
C1038      N1040   1.157       .  T
C1039      N1041   1.157       .  T
C1044      C1049   1.416       .  A
C1045      C1046   1.403       .  A
C1045      C1050   1.456       .  S
C1046      C1053   1.450       .  S
C1047      C1048   1.417       .  A
C1048      C1049   1.416       .  A
C1048      C1051   1.450       .  S
C1049      C1052   1.450       .  S
C1050      N1057   1.158       .  T
C1051      N1056   1.158       .  T
C1052      N1054   1.157       .  T
C1053      N1055   1.155       .  T
C1058      C1063   1.420       .  A
C1059      C1060   1.405       .  A
C1059      C1064   1.450       .  S
C1060      C1067   1.448       .  S
C1061      C1062   1.413       .  A
C1062      C1063   1.408       .  A
C1062      C1065   1.451       .  S
C1063      C1066   1.453       .  S
C1064      N1071   1.158       .  T
C1065      N1070   1.157       .  T
C1066      N1068   1.158       .  T
C1067      N1069   1.157       .  T
C1072      C1073   1.412       .  A
C1073      C1074   1.412       .  A
C1073      C1078   1.450       .  S
C1074      C1081   1.450       .  S
C1075      C1076   1.418       .  A
C1076      C1077   1.406       .  A
C1076      C1079   1.453       .  S
C1077      C1080   1.452       .  S
C1078      N1085   1.157       .  T
C1079      N1084   1.157       .  T
C1080      N1082   1.157       .  T
C1081      N1083   1.157       .  T
C1086      C1091   1.416       .  A
C1087      C1088   1.414       .  A
C1087      C1092   1.450       .  S
C1088      C1095   1.452       .  S
C1089      C1090   1.417       .  A
C1090      C1091   1.415       .  A
C1090      C1093   1.448       .  S
C1091      C1094   1.451       .  S
C1092      N1099   1.157       .  T
C1093      N1098   1.157       .  T
C1094      N1096   1.158       .  T
C1095      N1097   1.158       .  T
O1100     Co1120   2.104       .  S
O1101     Co1121   2.045       .  S
O1104      C1110   1.277       .  A
O1105      C1111   1.261       .  A
O1106      C1109   1.257   1_565  A
O1107      C1108   1.270       .  A
C1108      C1243   1.502       .  S
C1110      C1159   1.521       .  S
C1111      C1229   1.487       .  S
O1112      C1125   1.267       .  A
O1113      C1126   1.244       .  A
O1114      C1127   1.300       .  A
O1115      C1128   1.272       .  A
O1116     Co1121   1.926       .  S
O1117     Co1120   1.884       .  S
Co1120     O1124   1.999   1_666  S
C1125      C1173   1.516       .  S
C1126      C1215   1.477       .  S
C1127      C1190   1.504       .  S
C1129      C1246   1.514       .  S
C1129      C1130   1.425       .  A
C1129      C1134   1.413       .  A
C1130      C1232   1.496       .  S
C1130      C1131   1.402       .  A
C1131      C1132   1.396       .  A
C1131      H1136   1.084       .  S
C1132      C1201   1.499       .  S
C1132      C1133   1.415       .  A
C1133      C1218   1.499       .  S
C1133      C1134   1.409       .  A
C1134      H1135   1.082       .  S
C1137      C1187   1.494       .  S
C1137      C1138   1.422       .  A
C1137      C1142   1.405       .  A
C1138      C1176   1.514       .  S
C1138      C1139   1.412       .  A
C1139      C1140   1.408       .  A
C1139      H1144   1.084       .  S
C1140      C1145   1.497       .  S
C1140      C1141   1.418       .  A
C1141      C1162   1.500       .  S
C1141      C1142   1.400       .  A
C1142      H1143   1.085       .  S
C1145      C1150   1.413       .  A
C1146      C1147   1.413       .  A
C1146      C1151   1.452       .  S
C1147      C1154   1.452       .  S
C1148      C1149   1.421       .  A
C1149      C1150   1.418       .  A
C1149      C1152   1.451       .  S
C1150      C1153   1.449       .  S
C1151      N1158   1.157       .  T
C1152      N1157   1.158       .  T
C1153      N1155   1.157       .  T
C1154      N1156   1.157       .  T
C1159      C1164   1.424       .  A
C1160      C1161   1.415       .  A
C1160      C1165   1.449       .  S
C1161      C1168   1.452       .  S
C1162      C1163   1.412       .  A
C1163      C1164   1.420       .  A
C1163      C1166   1.450       .  S
C1164      C1167   1.451       .  S
C1165      N1172   1.156       .  T
C1166      N1171   1.157       .  T
C1167      N1169   1.157       .  T
C1168      N1170   1.157       .  T
C1173      C1174   1.424   1_545  A
C1174      C1175   1.416       .  A
C1174      C1179   1.452       .  S
C1175      C1182   1.448       .  S
C1176      C1177   1.416       .  A
C1177      C1178   1.415       .  A
C1177      C1180   1.452       .  S
C1178      C1181   1.448       .  S
C1179      N1186   1.158       .  T
C1180      N1185   1.157       .  T
C1181      N1183   1.157       .  T
C1182      N1184   1.157       .  T
C1187      C1192   1.409       .  A
C1188      C1189   1.409       .  A
C1188      C1193   1.455       .  S
C1189      C1196   1.451       .  S
C1190      C1191   1.417       .  A
C1191      C1192   1.414       .  A
C1191      C1194   1.447       .  S
C1192      C1195   1.450       .  S
C1193      N1200   1.157       .  T
C1194      N1199   1.157       .  T
C1195      N1197   1.157       .  T
C1196      N1198   1.157       .  T
C1201      C1206   1.416       .  A
C1202      C1203   1.403       .  A
C1202      C1207   1.456       .  S
C1203      C1210   1.450       .  S
C1204      C1205   1.417       .  A
C1205      C1206   1.416       .  A
C1205      C1208   1.450       .  S
C1206      C1209   1.450       .  S
C1207      N1214   1.158       .  T
C1208      N1213   1.158       .  T
C1209      N1211   1.157       .  T
C1210      N1212   1.155       .  T
C1215      C1220   1.420       .  A
C1216      C1217   1.405       .  A
C1216      C1221   1.450       .  S
C1217      C1224   1.448       .  S
C1218      C1219   1.413       .  A
C1219      C1220   1.408       .  A
C1219      C1222   1.451       .  S
C1220      C1223   1.453       .  S
C1221      N1228   1.158       .  T
C1222      N1227   1.157       .  T
C1223      N1225   1.158       .  T
C1224      N1226   1.157       .  T
C1229      C1230   1.412       .  A
C1230      C1231   1.412       .  A
C1230      C1235   1.450       .  S
C1231      C1238   1.450       .  S
C1232      C1233   1.418       .  A
C1233      C1234   1.406       .  A
C1233      C1236   1.453       .  S
C1234      C1237   1.452       .  S
C1235      N1242   1.157       .  T
C1236      N1241   1.157       .  T
C1237      N1239   1.157       .  T
C1238      N1240   1.157       .  T
C1243      C1248   1.416       .  A
C1244      C1245   1.414       .  A
C1244      C1249   1.450       .  S
C1245      C1252   1.452       .  S
C1246      C1247   1.417       .  A
C1247      C1248   1.415       .  A
C1247      C1250   1.448       .  S
C1248      C1251   1.451       .  S
C1249      N1256   1.157       .  T
C1250      N1255   1.157       .  T
C1251      N1253   1.158       .  T
C1252      N1254   1.158       .  T
