geometry optimzed in LAMMPS
_audit_creation_date              2020-11-30 
_audit_creation_method            'lammps2cif' 
_symmetry_space_group_name_H-M    'P1' 
_symmetry_Int_Tables_number       1 
_symmetry_cell_setting            triclinic 
loop_ 
_symmetry_equiv_pos_as_xyz 
  x,y,z 
_cell_length_a                    24.177379806156658 
_cell_length_b                    24.185814188744736 
_cell_length_c                    24.126627338587877 
_cell_angle_alpha                 90.02129650808958 
_cell_angle_beta                  90.04671304192436 
_cell_angle_gamma                 90.03373880577567 
loop_ 
_atom_site_label 
_atom_site_type_symbol 
_atom_site_fract_x 
_atom_site_fract_y 
_atom_site_fract_z 
_atom_site_charge 
O1          O  0.56202533  0.80935688  0.04538720    -0.69410
O2          O  0.44507731  0.69414043  0.04668226    -0.70390
O3          O  0.55905785  0.69735798  0.04534774    -0.59010
O4          O  0.43704020  0.80673720  0.04687945    -0.67420
O5          O  0.43757038  0.80937149  0.95498335    -0.66970
O6          O  0.55444631  0.69433349  0.95303310    -0.58230
O7          O  0.44066782  0.69737483  0.95434828    -0.70730
O8          O  0.56263568  0.80689446  0.95348764    -0.69510
Cu9        Cu  0.50078518  0.75319974  0.04938669     1.04560
Cu10       Cu  0.49884218  0.75332796  0.95065787     1.04330
C11         C  0.58765332  0.81532969  0.99943034     0.96790
C12         C  0.42532233  0.67765476  0.00066956     0.95930
C13         C  0.57434933  0.67775344  0.99892667     0.88070
C14         C  0.41199504  0.81526163  0.00098458     0.94350
C15         C  0.88153854  0.70030846  0.99956319     0.01050
C16         C  0.75961323  0.82249929  0.00017360     0.01050
O17         O  0.75716068  0.49850172  0.04521578    -0.69410
O18         O  0.86742746  0.37728032  0.04630954    -0.70390
O19         O  0.86921420  0.50241020  0.04503706    -0.59010
O20         O  0.75476452  0.38433924  0.04633535    -0.67420
O21         O  0.75705369  0.38086895  0.95394408    -0.66970
O22         O  0.86692088  0.50290555  0.95313310    -0.58230
O23         O  0.86930383  0.37760813  0.95440417    -0.70730
O24         O  0.75432168  0.49460277  0.95286170    -0.69510
Cu25       Cu  0.81345190  0.44061282  0.04902118     1.04560
Cu26       Cu  0.81324731  0.43900225  0.95028016     1.04330
C27         C  0.73763121  0.51412526  0.99885455     0.96790
C28         C  0.87556932  0.35212545  0.00042714     0.95930
C29         C  0.87509162  0.52807719  0.99906128     0.88070
C30         C  0.73780292  0.36502650  0.00030218     0.94350
C31         C  0.75973472  0.05847891  0.00074846     0.01050
C32         C  0.88166662  0.18010402  0.00065090     0.01050
O33         O  0.55717102  0.18406345  0.04557333    -0.69410
O34         O  0.43709452  0.07219028  0.04755017    -0.70390
O35         O  0.56226459  0.07144737  0.04718284    -0.59010
O36         O  0.44365790  0.18492562  0.04582388    -0.67420
O37         O  0.44176184  0.18163485  0.95342834    -0.66970
O38         O  0.56232107  0.07023884  0.95520162    -0.58230
O39         O  0.43736118  0.06939198  0.95561196    -0.70730
O40         O  0.55636438  0.18274504  0.95309434    -0.69510
Cu41       Cu  0.50004698  0.12685215  0.04985470     1.04560
Cu42       Cu  0.49946138  0.12466592  0.95106696     1.04330
C43         C  0.57424242  0.20159930  0.99896808     0.96790
C44         C  0.41184091  0.06382012  0.00169188     0.95930
C45         C  0.58764790  0.06379286  0.00130408     0.88070
C46         C  0.42514873  0.20143663  0.99933488     0.94350
C47         C  0.11792119  0.18033205  0.00097734     0.01050
C48         C  0.23977388  0.05858007  0.00099236     0.01050
C49         C  0.11785037  0.70046075  0.00088874     0.01050
C50         C  0.24006095  0.82254299  0.00062544     0.01050
O51         O  0.24287725  0.49682132  0.95354494    -0.69410
O52         O  0.12981790  0.37780841  0.95575656    -0.70390
O53         O  0.13063854  0.50284662  0.95570321    -0.59010
O54         O  0.24203151  0.38219597  0.95353638    -0.67420
O55         O  0.24503494  0.38327269  0.04595605    -0.66970
O56         O  0.13258528  0.50290368  0.04762716    -0.58230
O57         O  0.13240349  0.37751272  0.04765426    -0.70730
O58         O  0.24509533  0.49653896  0.04602101    -0.69510
Cu59       Cu  0.18500177  0.43992520  0.95137666     1.04560
Cu60       Cu  0.18744796  0.44005320  0.05014308     1.04330
C61         C  0.26218576  0.51410854  0.99944830     0.96790
C62         C  0.12399553  0.35231382  0.00179863     0.95930
C63         C  0.12454342  0.52826303  0.00178229     0.88070
C64         C  0.26164068  0.36512757  0.99938325     0.94350
O65         O  0.44167585  0.87766559  0.76363227    -0.69410
O66         O  0.56272292  0.89460508  0.87433417    -0.70390
O67         O  0.43725599  0.89508923  0.87522576    -0.59010
O68         O  0.55631945  0.87710588  0.76249961    -0.67420
O69         O  0.55612834  0.96841094  0.75078015    -0.66970
O70         O  0.43760110  0.98588533  0.86234322    -0.58230
O71         O  0.56221419  0.98554108  0.86234995    -0.70730
O72         O  0.44345950  0.96889133  0.75080135    -0.69510
Cu73       Cu  0.49951503  0.88297607  0.82088466     1.04560
Cu74       Cu  0.49988393  0.98047817  0.80748125     1.04330
C75         C  0.42548332  0.92097949  0.73846464     0.96790
C76         C  0.58778160  0.94119937  0.87545908     0.95930
C77         C  0.41210141  0.94161778  0.87590950     0.88070
C78         C  0.57301784  0.92034988  0.73748690     0.94350
C79         C  0.88198107  0.94160051  0.76113373     0.01050
C80         C  0.75968682  0.94108598  0.88254150     0.01050
O81         O  0.75123635  0.96993915  0.44246568    -0.69410
O82         O  0.86125399  0.98761577  0.56316378    -0.70390
O83         O  0.86249018  0.98790835  0.43796173    -0.59010
O84         O  0.75018546  0.96958128  0.55567402    -0.67420
O85         O  0.76327416  0.87847414  0.55645038    -0.66970
O86         O  0.87643640  0.89729571  0.43796470    -0.58230
O87         O  0.87465309  0.89689730  0.56356286    -0.70730
O88         O  0.76545715  0.87881447  0.44153198    -0.69510
Cu89       Cu  0.80717175  0.98212446  0.49986902     1.04560
Cu90       Cu  0.82189216  0.88478827  0.49993780     1.04330
C91         C  0.74023639  0.92171138  0.42452743     0.96790
C92         C  0.87501928  0.94342575  0.58875726     0.95930
C93         C  0.87655512  0.94371789  0.41256215     0.88070
C94         C  0.73757996  0.92141989  0.57282514     0.94350
C95         C  0.11772009  0.94175792  0.76091601     0.01050
C96         C  0.24005964  0.94101962  0.88276850     0.01050
O97         O  0.12411357  0.89725556  0.56292216    -0.69410
O98         O  0.23716839  0.87857380  0.44459578    -0.70390
O99         O  0.23518129  0.88000835  0.55906944    -0.59010
O100        O  0.12558527  0.89568803  0.43726312    -0.67420
O101        O  0.13546256  0.98684407  0.43829603    -0.66970
O102        O  0.25048640  0.97073958  0.55431589    -0.58230
O103        O  0.24625087  0.97022477  0.44022636    -0.70730
O104        O  0.13918415  0.98772949  0.56337921    -0.69510
Cu105      Cu  0.17864779  0.88478102  0.50100601     1.04560
Cu106      Cu  0.19205978  0.98226453  0.49914928     1.04330
C107        C  0.12456787  0.94358037  0.58853860     0.96790
C108        C  0.25932146  0.92179833  0.42434508     0.95930
C109        C  0.26149687  0.92309195  0.57389726     0.88070
C110        C  0.12337974  0.94232526  0.41237690     0.94350
C111        C  0.24027256  0.94080377  0.11870921     0.01050
C112        C  0.11774343  0.94142080  0.23987529     0.01050
C113        C  0.75980454  0.94065851  0.11843706     0.01050
C114        C  0.88212145  0.94202453  0.24007195     0.01050
O115        O  0.56297350  0.98578019  0.14087204    -0.69410
O116        O  0.44087822  0.96902287  0.24899838    -0.70390
O117        O  0.55499294  0.96926005  0.25267248    -0.59010
O118        O  0.43832452  0.98519059  0.13786841    -0.67420
O119        O  0.43694730  0.89398503  0.12812030    -0.66970
O120        O  0.55894655  0.87837278  0.23742285    -0.58230
O121        O  0.44448953  0.87732183  0.24004596    -0.70730
O122        O  0.56231199  0.89521404  0.12620081    -0.69510
Cu123      Cu  0.49937283  0.98067603  0.19436401     1.04560
Cu124      Cu  0.50067989  0.88309581  0.18115767     1.04330
C125        C  0.58789753  0.94154911  0.12623185     0.96790
C126        C  0.42452956  0.92075735  0.26206421     0.95930
C127        C  0.57454285  0.92152730  0.26312772     0.88070
C128        C  0.41232880  0.94073290  0.12575384     0.94350
O129        O  0.95384694  0.37808400  0.87212642    -0.69410
O130        O  0.95356430  0.49582449  0.75775019    -0.70390
O131        O  0.95231153  0.38238046  0.75934162    -0.59010
O132        O  0.95466444  0.50322756  0.87057877    -0.67420
O133        O  0.04638057  0.50280524  0.86973253    -0.66970
O134        O  0.04429723  0.38186899  0.75834846    -0.58230
O135        O  0.04551815  0.49505971  0.75719280    -0.70730
O136        O  0.04555250  0.37765632  0.87137725    -0.69510
Cu137      Cu  0.95035035  0.43993019  0.81641956     1.04560
Cu138      Cu  0.04869233  0.43930505  0.81557374     1.04330
C139        C  0.99964360  0.35251516  0.87883267     0.96790
C140        C  0.99958933  0.51244249  0.73823060     0.95930
C141        C  0.99795943  0.36478467  0.73990660     0.88070
C142        C  0.00070783  0.52851291  0.87688133     0.94350
C143        C  0.99974939  0.82346616  0.76055490     0.01050
C144        C  0.00027514  0.70068835  0.88222184     0.01050
O145        O  0.95332172  0.81004481  0.56267257    -0.69410
O146        O  0.95448652  0.69737640  0.44330285    -0.70390
O147        O  0.95397015  0.69762815  0.55665977    -0.59010
O148        O  0.95362166  0.80992752  0.43732033    -0.67420
O149        O  0.04533132  0.81059639  0.43753158    -0.66970
O150        O  0.04592551  0.69837742  0.55715814    -0.58230
O151        O  0.04643786  0.69806194  0.44367392    -0.70730
O152        O  0.04502426  0.81088770  0.56281343    -0.69510
Cu153      Cu  0.95059014  0.75517911  0.49995453     1.04560
Cu154      Cu  0.04891730  0.75596479  0.50029759     1.04330
C155        C  0.99910271  0.81753580  0.58816836     0.96790
C156        C  0.00066003  0.67839802  0.42654996     0.95930
C157        C  0.00000151  0.67886076  0.57400739     0.88070
C158        C  0.99946246  0.81737828  0.41204333     0.94350
C159        C  0.99912684  0.70095475  0.11814012     0.01050
C160        C  0.99956222  0.82364462  0.23979652     0.01050
O161        O  0.04651384  0.49369199  0.24350845    -0.69410
O162        O  0.04443566  0.37855905  0.12644819    -0.70390
O163        O  0.04465096  0.50357293  0.13079179    -0.59010
O164        O  0.04643529  0.37997154  0.23905744    -0.67420
O165        O  0.95439154  0.38116589  0.24131021    -0.66970
O166        O  0.95291257  0.50326591  0.13154860    -0.58230
O167        O  0.95278263  0.37805566  0.12852929    -0.70730
O168        O  0.95456373  0.49433079  0.24414603    -0.69510
Cu169      Cu  0.04875173  0.43903129  0.18351100     1.04560
Cu170      Cu  0.95038790  0.43925824  0.18501040     1.04330
C171        C  0.00080096  0.51076622  0.26332425     0.96790
C172        C  0.99857488  0.35286829  0.12056461     0.95930
C173        C  0.99865811  0.52888779  0.12443931     0.88070
C174        C  0.00062540  0.36263347  0.25838911     0.94350
C175        C  0.99967702  0.05885050  0.76144117     0.01050
C176        C  0.99972586  0.18052946  0.88324181     0.01050
C177        C  0.00038043  0.05882567  0.23966997     0.01050
C178        C  0.99964177  0.18073453  0.11825616     0.01050
O179        O  0.04522171  0.06995224  0.56378054    -0.69410
O180        O  0.04602223  0.17945458  0.44159450    -0.70390
O181        O  0.04426962  0.18265142  0.55563273    -0.59010
O182        O  0.04620793  0.06732942  0.43836064    -0.67420
O183        O  0.95450435  0.06729440  0.43735604    -0.66970
O184        O  0.95228518  0.18128087  0.55536127    -0.58230
O185        O  0.95393325  0.18000597  0.44148362    -0.70730
O186        O  0.95347279  0.06896752  0.56288410    -0.69510
Cu187      Cu  0.04869023  0.12350268  0.49997120     1.04560
Cu188      Cu  0.95029078  0.12297308  0.49923870     1.04330
C189        C  0.99921478  0.06276977  0.58886655     0.96790
C190        C  0.00014341  0.19793182  0.42361408     0.95930
C191        C  0.99792320  0.20104022  0.57268457     0.88070
C192        C  0.00059407  0.06056476  0.41230995     0.94350
C193        C  0.00080691  0.06396518  0.30138570    -0.09740
C194        C  0.00101783  0.05829884  0.35180805    -0.11300
C195        C  0.00023435  0.11180422  0.20705013    -0.09740
C196        C  0.99990701  0.14788219  0.17116807    -0.11300
C197        C  0.99920520  0.06458796  0.69980146    -0.09740
C198        C  0.99893071  0.05969468  0.64930948    -0.11300
C199        C  0.99978165  0.14750957  0.83045628    -0.09740
C200        C  0.99975680  0.11155669  0.79445569    -0.11300
C201        C  0.95664896  0.31789604  0.33810443    -0.09810
C202        C  0.00099654  0.32106641  0.30099932     0.12340
C203        C  0.04559062  0.28446633  0.30488109    -0.09810
C204        C  0.04540910  0.24407473  0.34537320    -0.09810
C205        C  0.00063552  0.24036268  0.38189519     0.12340
C206        C  0.95645350  0.27749544  0.37855486    -0.09810
H207        H  0.92242612  0.34673700  0.33595626     0.16320
H208        H  0.07995473  0.28655590  0.27614874     0.16320
H209        H  0.07965696  0.21527269  0.34761129     0.16560
H210        H  0.92212105  0.27543578  0.40733240     0.16320
C211        C  0.99928687  0.24224661  0.12370088    -0.09740
C212        C  0.99882951  0.29254373  0.11813513    -0.11300
C213        C  0.99882806  0.63959121  0.12505558    -0.09740
C214        C  0.99855146  0.58915943  0.12084911    -0.11300
C215        C  0.99903916  0.73494536  0.17040811    -0.09740
C216        C  0.99922937  0.77119567  0.20617969    -0.11300
C217        C  0.05139612  0.61388998  0.36619024    -0.09810
C218        C  0.00107519  0.63315097  0.38744085     0.12340
C219        C  0.95106249  0.60892007  0.37106284    -0.09810
C220        C  0.95114759  0.56761331  0.33157314    -0.09810
C221        C  0.00124299  0.55035318  0.30818673     0.12340
C222        C  0.05148058  0.57255390  0.32664979    -0.09810
H223        H  0.09053909  0.63151373  0.37912501     0.16320
H224        H  0.91183494  0.62247798  0.38794432     0.16320
H225        H  0.91195773  0.55016731  0.31853086     0.16320
H226        H  0.09065942  0.55911420  0.30956723     0.16320
C227        C  0.99950517  0.82130923  0.35174413    -0.09740
C228        C  0.99956387  0.81702293  0.30124845    -0.11300
C229        C  0.99940831  0.81693387  0.69904160    -0.09740
C230        C  0.99910596  0.82130609  0.64852958    -0.11300
C231        C  0.00004018  0.77094803  0.79413904    -0.09740
C232        C  0.00029102  0.73466080  0.82989487    -0.11300
C233        C  0.04531927  0.31514939  0.66475702    -0.09810
C234        C  0.99719247  0.32472606  0.69553036     0.12340
C235        C  0.94839697  0.29590150  0.68358177    -0.09810
C236        C  0.94832123  0.25612706  0.64244585    -0.09810
C237        C  0.99704830  0.24504466  0.61314048     0.12340
C238        C  0.04524583  0.27538071  0.62363134    -0.09810
H239        H  0.08304025  0.33803099  0.67272410     0.16320
H240        H  0.91074010  0.30317695  0.70677464     0.16320
H241        H  0.91062694  0.23316412  0.63459779     0.16320
H242        H  0.08293944  0.26798265  0.60053592     0.16320
C243        C  0.94975978  0.56984691  0.67050324    -0.09810
C244        C  0.99983496  0.55230569  0.69371436     0.12340
C245        C  0.05017899  0.57392740  0.67490387    -0.09810
C246        C  0.05029411  0.61477086  0.63497162    -0.09810
C247        C  0.00007266  0.63414962  0.61362750     0.12340
C248        C  0.94987604  0.61068455  0.63053793    -0.09810
H249        H  0.91051608  0.55282941  0.68387126     0.16320
H250        H  0.08936482  0.56026990  0.69184984     0.16320
H251        H  0.08955032  0.63183949  0.62170730     0.16320
H252        H  0.91069870  0.62444320  0.61365450     0.16320
C253        C  0.00091883  0.58884681  0.88004990    -0.09740
C254        C  0.00062329  0.63926668  0.87548247    -0.11300
C255        C  0.99945976  0.29229218  0.88221112    -0.09740
C256        C  0.99951680  0.24194853  0.87735009    -0.11300
C257        C  0.91552274  0.89292786  0.22708743    -0.09740
C258        C  0.95076887  0.85744518  0.22669083    -0.11300
C259        C  0.95135026  0.02567055  0.22580464    -0.09740
C260        C  0.91571597  0.99057039  0.22576747    -0.11300
C261        C  0.64803268  0.94216009  0.12155445    -0.09740
C262        C  0.69847674  0.94149825  0.12525848    -0.11300
C263        C  0.79344481  0.94087976  0.17087498    -0.09740
C264        C  0.82951662  0.94148099  0.20679418    -0.11300
C265        C  0.04907767  0.02545975  0.22538766    -0.09740
C266        C  0.08441164  0.99009908  0.22546430    -0.11300
C267        C  0.04862841  0.85709628  0.22657339    -0.09740
C268        C  0.08412677  0.89240070  0.22678985    -0.11300
C269        C  0.30166828  0.94158115  0.12541444    -0.09740
C270        C  0.35211857  0.94198587  0.12147383    -0.11300
C271        C  0.20666518  0.94070203  0.17111449    -0.09740
C272        C  0.17045269  0.94093276  0.20683911    -0.11300
C273        C  0.29132435  0.94561911  0.33211675    -0.09810
C274        C  0.29958576  0.91647846  0.38134882     0.12340
C275        C  0.34775577  0.88582553  0.39049133    -0.09810
C276        C  0.38876759  0.88557526  0.35030016    -0.09810
C277        C  0.38088154  0.91598127  0.30167934     0.12340
C278        C  0.33209685  0.94535824  0.29214809    -0.09810
H279        H  0.25381529  0.96918973  0.32519344     0.16320
H280        H  0.35423802  0.86403590  0.42919237     0.16320
H281        H  0.42710084  0.86357916  0.35776548     0.16320
H282        H  0.32614375  0.96871776  0.25427164     0.16320
C283        C  0.11948062  0.94330433  0.35199726    -0.09740
C284        C  0.12380634  0.94255114  0.30147162    -0.11300
C285        C  0.08413157  0.99034390  0.77503565    -0.09740
C286        C  0.04865516  0.02556687  0.77503371    -0.11300
C287        C  0.08410372  0.89262616  0.77355537    -0.09740
C288        C  0.04870733  0.85720757  0.77362216    -0.11300
C289        C  0.12430735  0.94305305  0.69941238    -0.09740
C290        C  0.12035367  0.94413124  0.64887013    -0.11300
C291        C  0.20631548  0.94107172  0.83036053    -0.09740
C292        C  0.17019011  0.94134057  0.79446697    -0.11300
C293        C  0.71066689  0.90119382  0.33009983    -0.09810
C294        C  0.69732563  0.91598468  0.38439453     0.12340
C295        C  0.64331239  0.92971465  0.39956729    -0.09810
C296        C  0.60229722  0.93001553  0.35962839    -0.09810
C297        C  0.61582841  0.91652240  0.30505537     0.12340
C298        C  0.66955543  0.90140440  0.29010444    -0.09810
H299        H  0.75288566  0.89149207  0.31855288     0.16320
H300        H  0.63340839  0.94122907  0.44184008     0.16320
H301        H  0.56046257  0.94160626  0.37084427     0.16320
H302        H  0.67979271  0.89171448  0.24746687     0.16320
C303        C  0.87597880  0.94329687  0.30164855    -0.09740
C304        C  0.88034873  0.94435794  0.35217453    -0.11300
C305        C  0.91545106  0.89241618  0.77386068    -0.09740
C306        C  0.95081755  0.85701017  0.77397419    -0.11300
C307        C  0.87549117  0.94309148  0.69961583    -0.09740
C308        C  0.87934833  0.94426530  0.64907874    -0.11300
C309        C  0.91557691  0.99010731  0.77552486    -0.09740
C310        C  0.95098481  0.02540680  0.77552886    -0.11300
C311        C  0.82947238  0.94123618  0.79442305    -0.09740
C312        C  0.79334644  0.94107631  0.83020875    -0.11300
C313        C  0.65117367  0.87345960  0.69144334    -0.09810
C314        C  0.61163217  0.91570817  0.69229981     0.12340
C315        C  0.61047775  0.95602793  0.65079313    -0.09810
C316        C  0.65078078  0.95631513  0.61048720    -0.09810
C317        C  0.69246953  0.91627287  0.61145312     0.12340
C318        C  0.69182139  0.87375713  0.65081601    -0.09810
H319        H  0.65205847  0.84201259  0.72339413     0.16320
H320        H  0.57916308  0.98808788  0.65031601     0.16320
H321        H  0.65013643  0.98858466  0.57932990     0.16320
H322        H  0.72391719  0.84252104  0.65157752     0.16320
C323        C  0.34069194  0.88110929  0.69910716    -0.09810
C324        C  0.38617143  0.91647093  0.69418805     0.12340
C325        C  0.39256241  0.95071316  0.64797015    -0.09810
C326        C  0.35208489  0.95161537  0.60770230    -0.09810
C327        C  0.30533572  0.91818441  0.61367974     0.12340
C328        C  0.30000971  0.88198298  0.65860082    -0.09810
H329        H  0.33563817  0.85487381  0.73514796     0.16320
H330        H  0.42828513  0.97749681  0.64371789     0.16320
H331        H  0.35674638  0.97894521  0.57241480     0.16320
H332        H  0.26360487  0.85624986  0.66331781     0.16320
C333        C  0.64794727  0.94221977  0.87964673    -0.09740
C334        C  0.69836356  0.94175712  0.87568465    -0.11300
C335        C  0.35188150  0.94251629  0.88000663    -0.09740
C336        C  0.30143325  0.94189475  0.87599342    -0.11300
C337        C  0.22720554  0.89183055  0.91627368    -0.09740
C338        C  0.22704792  0.85626956  0.95157752    -0.11300
C339        C  0.22728755  0.89176502  0.08503063    -0.09740
C340        C  0.22707830  0.85631080  0.04961756    -0.11300
C341        C  0.08397572  0.71393093  0.04962105    -0.09740
C342        C  0.04824295  0.71399022  0.08469921    -0.11300
C343        C  0.04901074  0.71396558  0.91621291    -0.09740
C344        C  0.08434935  0.71365681  0.95175363    -0.11300
C345        C  0.12447476  0.63901546  0.00128348    -0.09740
C346        C  0.12045797  0.58854408  0.00173584    -0.11300
C347        C  0.20617338  0.77025458  0.00073302    -0.09740
C348        C  0.17022456  0.73421488  0.00091376    -0.11300
C349        C  0.22647219  0.98949468  0.08510242    -0.09740
C350        C  0.22626430  0.02496994  0.04981714    -0.11300
C351        C  0.22641126  0.98963490  0.91659984    -0.09740
C352        C  0.22639825  0.02504389  0.95199794    -0.11300
C353        C  0.04857631  0.16707436  0.08489659    -0.09740
C354        C  0.08422890  0.16685026  0.04977611    -0.11300
C355        C  0.08432063  0.16705761  0.95195630    -0.09740
C356        C  0.04871069  0.16706582  0.91671363    -0.11300
C357        C  0.12012603  0.29210079  0.00166880    -0.09740
C358        C  0.12441279  0.24170607  0.00129188    -0.11300
C359        C  0.17036282  0.14689662  0.00099257    -0.09740
C360        C  0.20635183  0.11100841  0.00099243    -0.11300
C361        C  0.39628720  0.29566895  0.02006929    -0.09810
C362        C  0.38382531  0.24344737  0.99869557     0.12340
C363        C  0.33163119  0.23117249  0.97714834    -0.09810
C364        C  0.29123712  0.27161908  0.97711821    -0.09810
C365        C  0.30361204  0.32377510  0.99861695     0.12340
C366        C  0.35586879  0.33614452  0.02003100    -0.09810
H367        H  0.43706841  0.30490637  0.03634952     0.16320
H368        H  0.32219479  0.19035062  0.96115794     0.16320
H369        H  0.25037565  0.26224587  0.96112726     0.16320
H370        H  0.36516398  0.37689022  0.03630626     0.16320
C371        C  0.30119038  0.06491862  0.00126103    -0.09740
C372        C  0.35158126  0.06035073  0.00158479    -0.11300
C373        C  0.91523485  0.16653862  0.95178521    -0.09740
C374        C  0.95084876  0.16668006  0.91662254    -0.11300
C375        C  0.91520750  0.16660295  0.04960034    -0.09740
C376        C  0.95076854  0.16667610  0.08487477    -0.11300
C377        C  0.77348961  0.98929181  0.08470297    -0.09740
C378        C  0.77348397  0.02482055  0.04947496    -0.11300
C379        C  0.77325644  0.98977857  0.91627766    -0.09740
C380        C  0.77313756  0.02513284  0.95170367    -0.11300
C381        C  0.69829337  0.06456759  0.00106013    -0.09740
C382        C  0.64788879  0.06006640  0.00134613    -0.11300
C383        C  0.79304171  0.11099813  0.00076615    -0.09740
C384        C  0.82908388  0.14686162  0.00067065    -0.11300
C385        C  0.71115881  0.26863721  0.99154046    -0.09810
C386        C  0.69599835  0.32357084  0.00047669     0.12340
C387        C  0.64086191  0.33891169  0.00814699    -0.09810
C388        C  0.60027620  0.29851061  0.00711325    -0.09810
C389        C  0.61556007  0.24352865  0.99833078     0.12340
C390        C  0.67065162  0.22830395  0.99055633    -0.09810
H391        H  0.75405813  0.25722071  0.98550158     0.16320
H392        H  0.62953238  0.38179874  0.01455406     0.16320
H393        H  0.55731259  0.30983437  0.01310705     0.16320
H394        H  0.68206988  0.18548265  0.98409623     0.16320
C395        C  0.87970631  0.29192868  0.00043224    -0.09740
C396        C  0.87547771  0.24151732  0.00056052    -0.11300
C397        C  0.77274718  0.85644821  0.95137268    -0.09740
C398        C  0.77262703  0.89202163  0.91611596    -0.11300
C399        C  0.77265874  0.85602305  0.04941012    -0.09740
C400        C  0.77261996  0.89147863  0.08486153    -0.11300
C401        C  0.91540436  0.71361398  0.95075733    -0.09740
C402        C  0.95114840  0.71367592  0.91567868    -0.11300
C403        C  0.87486562  0.63885297  0.99946233    -0.09740
C404        C  0.87897931  0.58838727  0.99925206    -0.11300
C405        C  0.91507478  0.71369886  0.04861183    -0.09740
C406        C  0.95040806  0.71408950  0.08413906    -0.11300
C407        C  0.79336612  0.77016881  0.99983604    -0.09740
C408        C  0.82921733  0.73407699  0.99954046    -0.11300
C409        C  0.66724230  0.64744582  0.02227623    -0.09810
C410        C  0.61586762  0.63601295  0.99842962     0.12340
C411        C  0.60417052  0.58465772  0.97464952    -0.09810
C412        C  0.64454226  0.54415566  0.97468578    -0.09810
C413        C  0.69593744  0.55568070  0.99851191     0.12340
C414        C  0.70754938  0.60700842  0.02231157    -0.09810
H415        H  0.67606025  0.68757893  0.04026426     0.16320
H416        H  0.56391641  0.57599355  0.95681458     0.16320
H417        H  0.63576115  0.50395093  0.95685200     0.16320
H418        H  0.74773282  0.61570081  0.04030425     0.16320
C419        C  0.39804438  0.58203228  0.01604771    -0.09810
C420        C  0.38390046  0.63588713  0.00082022     0.12340
C421        C  0.33028331  0.64972197  0.98447757    -0.09810
C422        C  0.29005374  0.60915230  0.98356952    -0.09810
C423        C  0.30410352  0.55534637  0.99887003     0.12340
C424        C  0.35776115  0.54139477  0.01510457    -0.09810
H425        H  0.43998821  0.57166643  0.02808150     0.16320
H426        H  0.31976563  0.69170193  0.97284904     0.16320
H427        H  0.24813359  0.61960027  0.97155434     0.16320
H428        H  0.36817763  0.49938430  0.02675450     0.16320
C429        C  0.30137738  0.81557960  0.00070318    -0.09740
C430        C  0.35181402  0.81950955  0.00082834    -0.11300
C431        C  0.64784698  0.81953372  0.99967602    -0.09740
C432        C  0.69827842  0.81557780  0.99992946    -0.11300
loop_ 
_geom_bond_atom_site_label_1 
_geom_bond_atom_site_label_2 
_geom_bond_distance 
_geom_bond_site_symmetry_2 
_ccdc_geom_bond_type 
O1           Cu9   2.011       .  S
O1           C11   1.279   1_554  A
O2           Cu9   1.964       .  S
O2           C12   1.272       .  A
O3           Cu9   1.955       .  S
O3           C13   1.271   1_554  A
O4           Cu9   2.014       .  S
O4           C14   1.278       .  A
O5          Cu10   2.011       .  S
O5           C14   1.279   1_556  A
O6          Cu10   1.962       .  S
O6           C13   1.272       .  A
O7          Cu10   1.953       .  S
O7           C12   1.271   1_556  A
O8          Cu10   2.015       .  S
O8           C11   1.279       .  A
Cu9         Cu10   2.382   1_554  S
C11         C431   1.459       .  S
C12         C420   1.422       .  S
C13         C410   1.424       .  S
C14         C430   1.459       .  S
C15         C401   1.470       .  S
C15         C403   1.495       .  S
C15         C405   1.470   1_556  S
C15         C408   1.506       .  S
C16         C397   1.470   1_554  S
C16         C399   1.472       .  S
C16         C407   1.506   1_554  S
C16         C432   1.492   1_554  S
O17         Cu25   1.955       .  S
O17          C27   1.271   1_554  A
O18         Cu25   2.014       .  S
O18          C28   1.278       .  A
O19         Cu25   2.015       .  S
O19          C29   1.279   1_554  A
O20         Cu25   1.967       .  S
O20          C30   1.272       .  A
O21         Cu26   1.957       .  S
O21          C30   1.271   1_556  A
O22         Cu26   2.019       .  S
O22          C29   1.279       .  A
O23         Cu26   2.013       .  S
O23          C28   1.279   1_556  A
O24         Cu26   1.961       .  S
O24          C27   1.272       .  A
Cu25        Cu26   2.383   1_554  S
C27         C413   1.424       .  S
C28         C395   1.459       .  S
C29         C404   1.462       .  S
C30         C386   1.423       .  S
C31         C378   1.468       .  S
C31         C380   1.468   1_554  S
C31         C381   1.493       .  S
C31         C383   1.504       .  S
C32         C373   1.469   1_554  S
C32         C375   1.469       .  S
C32         C384   1.504       .  S
C32         C396   1.493       .  S
O33         Cu41   1.957       .  S
O33          C43   1.271   1_554  A
O34         Cu41   2.016       .  S
O34          C44   1.279       .  A
O35         Cu41   2.016       .  S
O35          C45   1.280       .  A
O36         Cu41   1.960       .  S
O36          C46   1.272   1_554  A
O37         Cu42   1.962       .  S
O37          C46   1.272       .  A
O38         Cu42   2.014       .  S
O38          C45   1.279   1_556  A
O39         Cu42   2.013       .  S
O39          C44   1.279   1_556  A
O40         Cu42   1.966       .  S
O40          C43   1.272       .  A
Cu41        Cu42   2.384   1_554  S
C43         C389   1.423       .  S
C44         C372   1.459       .  S
C45         C382   1.459       .  S
C46         C362   1.425       .  S
C47         C354   1.469       .  S
C47         C355   1.470   1_554  S
C47         C358   1.493       .  S
C47         C359   1.504       .  S
C48         C350   1.468       .  S
C48         C352   1.469   1_554  S
C48         C360   1.504       .  S
C48         C371   1.493       .  S
C49         C341   1.470       .  S
C49         C344   1.470   1_554  S
C49         C345   1.495       .  S
C49         C348   1.506       .  S
C50         C338   1.471   1_554  S
C50         C340   1.471       .  S
C50         C347   1.506       .  S
C50         C429   1.492       .  S
O51         Cu59   1.963       .  S
O51          C61   1.272       .  A
O52         Cu59   2.012       .  S
O52          C62   1.279   1_556  A
O53         Cu59   2.014       .  S
O53          C63   1.279   1_556  A
O54         Cu59   1.964       .  S
O54          C64   1.272       .  A
O55         Cu60   1.959       .  S
O55          C64   1.272   1_554  A
O56         Cu60   2.019       .  S
O56          C63   1.280       .  A
O57         Cu60   2.015       .  S
O57          C62   1.279       .  A
O58         Cu60   1.954       .  S
O58          C61   1.271   1_554  A
Cu59        Cu60   2.384   1_556  S
C61         C423   1.422       .  S
C62         C357   1.459       .  S
C63         C346   1.461       .  S
C64         C365   1.425       .  S
O65         Cu73   1.969       .  S
O65          C75   1.273       .  A
O66         Cu73   2.018       .  S
O66          C76   1.279       .  A
O67         Cu73   2.018       .  S
O67          C77   1.280       .  A
O68         Cu73   1.973       .  S
O68          C78   1.273       .  A
O69         Cu74   1.952       .  S
O69          C78   1.273       .  A
O70         Cu74   2.010       .  S
O70          C77   1.278       .  A
O71         Cu74   2.009       .  S
O71          C76   1.278       .  A
O72         Cu74   1.951       .  S
O72          C75   1.272       .  A
Cu73        Cu74   2.380       .  S
C75         C324   1.433       .  S
C76         C333   1.458       .  S
C77         C335   1.460       .  S
C78         C314   1.440       .  S
C79         C305   1.471       .  S
C79         C307   1.493       .  S
C79         C309   1.468       .  S
C79         C311   1.503       .  S
C80         C312   1.503       .  S
C80         C334   1.492       .  S
C80         C379   1.468       .  S
C80         C398   1.471       .  S
O81         Cu89   1.957       .  S
O81          C91   1.272       .  A
O82         Cu89   2.014       .  S
O82          C92   1.279       .  A
O83         Cu89   2.011       .  S
O83          C93   1.278       .  A
O84         Cu89   1.951       .  S
O84          C94   1.273       .  A
O85         Cu90   1.973       .  S
O85          C94   1.273       .  A
O86         Cu90   2.017       .  S
O86          C93   1.279       .  A
O87         Cu90   2.016       .  S
O87          C92   1.279       .  A
O88         Cu90   1.966       .  S
O88          C91   1.272       .  A
Cu89        Cu90   2.381       .  S
C91         C294   1.425       .  S
C92         C308   1.459       .  S
C93         C304   1.460       .  S
C94         C317   1.441       .  S
C95         C285   1.469       .  S
C95         C287   1.471       .  S
C95         C289   1.493       .  S
C95         C292   1.504       .  S
C96         C291   1.504       .  S
C96         C336   1.493       .  S
C96         C337   1.472       .  S
C96         C351   1.469       .  S
O97        Cu105   2.016       .  S
O97         C107   1.279       .  A
O98        Cu105   1.970       .  S
O98         C108   1.272       .  A
O99        Cu105   1.960       .  S
O99         C109   1.272       .  A
O100       Cu105   2.019       .  S
O100        C110   1.279       .  A
O101       Cu106   2.009       .  S
O101        C110   1.278       .  A
O102       Cu106   1.960       .  S
O102        C109   1.274       .  A
O103       Cu106   1.956       .  S
O103        C108   1.272       .  A
O104       Cu106   2.014       .  S
O104        C107   1.278       .  A
Cu105      Cu106   2.380       .  S
C107        C290   1.459       .  S
C108        C274   1.429       .  S
C109        C327   1.434       .  S
C110        C283   1.460       .  S
C111        C269   1.493       .  S
C111        C271   1.504       .  S
C111        C339   1.471       .  S
C111        C349   1.468       .  S
C112        C266   1.469       .  S
C112        C268   1.471       .  S
C112        C272   1.504       .  S
C112        C284   1.493       .  S
C113        C262   1.492       .  S
C113        C263   1.503       .  S
C113        C377   1.468       .  S
C113        C400   1.472       .  S
C114        C257   1.470       .  S
C114        C260   1.469       .  S
C114        C264   1.504       .  S
C114        C303   1.493       .  S
O115       Cu123   2.012       .  S
O115        C125   1.278       .  A
O116       Cu123   1.954       .  S
O116        C126   1.272       .  A
O117       Cu123   1.965       .  S
O117        C127   1.273       .  A
O118       Cu123   2.011       .  S
O118        C128   1.279       .  A
O119       Cu124   2.020       .  S
O119        C128   1.279       .  A
O120       Cu124   1.959       .  S
O120        C127   1.271       .  A
O121       Cu124   1.971       .  S
O121        C126   1.273       .  A
O122       Cu124   2.017       .  S
O122        C125   1.280       .  A
Cu123      Cu124   2.382       .  S
C125        C261   1.458       .  S
C126        C277   1.429       .  S
C127        C297   1.426       .  S
C128        C270   1.460       .  S
O129       Cu137   2.013       .  S
O129        C139   1.279       .  A
O130       Cu137   1.959       .  S
O130        C140   1.274       .  A
O131       Cu137   1.958       .  S
O131        C141   1.273       .  A
O132       Cu137   2.015       .  S
O132        C142   1.279   1_655  A
O133       Cu138   2.017       .  S
O133        C142   1.279       .  A
O134       Cu138   1.961       .  S
O134        C141   1.274   1_455  A
O135       Cu138   1.952       .  S
O135        C140   1.272   1_455  A
O136       Cu138   2.011       .  S
O136        C139   1.278   1_455  A
Cu137      Cu138   2.378   1_655  S
C139        C255   1.459       .  S
C140        C244   1.444       .  S
C141        C234   1.444       .  S
C142        C253   1.461       .  S
C143        C229   1.492       .  S
C143        C231   1.507   1_655  S
C143        C288   1.471   1_655  S
C143        C306   1.471       .  S
C144        C232   1.507       .  S
C144        C254   1.494       .  S
C144        C343   1.470       .  S
C144        C402   1.471   1_455  S
O145       Cu153   2.013       .  S
O145        C155   1.279       .  A
O146       Cu153   1.957       .  S
O146        C156   1.273   1_655  A
O147       Cu153   1.954       .  S
O147        C157   1.273   1_655  A
O148       Cu153   2.011       .  S
O148        C158   1.278       .  A
O149       Cu154   2.012       .  S
O149        C158   1.278   1_455  A
O150       Cu154   1.957       .  S
O150        C157   1.273       .  A
O151       Cu154   1.957       .  S
O151        C156   1.273       .  A
O152       Cu154   2.012       .  S
O152        C155   1.278   1_455  A
Cu153      Cu154   2.377   1_655  S
C155        C230   1.459       .  S
C156        C218   1.445       .  S
C157        C247   1.444       .  S
C158        C227   1.458       .  S
C159        C213   1.494       .  S
C159        C215   1.505       .  S
C159        C342   1.470   1_655  S
C159        C406   1.470       .  S
C160        C216   1.505       .  S
C160        C228   1.491       .  S
C160        C258   1.470       .  S
C160        C267   1.471   1_655  S
O161       Cu169   1.961       .  S
O161        C171   1.274       .  A
O162       Cu169   2.011       .  S
O162        C172   1.278   1_455  A
O163       Cu169   2.016       .  S
O163        C173   1.279   1_455  A
O164       Cu169   1.960       .  S
O164        C174   1.273       .  A
O165       Cu170   1.957       .  S
O165        C174   1.273   1_655  A
O166       Cu170   2.016       .  S
O166        C173   1.279       .  A
O167       Cu170   2.012       .  S
O167        C172   1.279       .  A
O168       Cu170   1.954       .  S
O168        C171   1.273   1_655  A
Cu169      Cu170   2.378   1_455  S
C171        C221   1.445       .  S
C172        C212   1.460       .  S
C173        C214   1.460       .  S
C174        C202   1.438       .  S
C175        C197   1.494       .  S
C175        C200   1.503       .  S
C175        C286   1.469   1_655  S
C175        C310   1.468       .  S
C176        C199   1.503       .  S
C176        C256   1.492       .  S
C176        C356   1.470   1_655  S
C176        C374   1.469       .  S
C177        C193   1.494       .  S
C177        C195   1.504       .  S
C177        C259   1.469   1_455  S
C177        C265   1.469       .  S
C178        C196   1.504       .  S
C178        C211   1.493       .  S
C178        C353   1.469   1_655  S
C178        C376   1.469       .  S
O179       Cu187   2.014       .  S
O179        C189   1.279   1_455  A
O180       Cu187   1.955       .  S
O180        C190   1.272       .  A
O181       Cu187   1.965       .  S
O181        C191   1.274   1_455  A
O182       Cu187   2.014       .  S
O182        C192   1.279       .  A
O183       Cu188   2.013       .  S
O183        C192   1.279   1_655  A
O184       Cu188   1.955       .  S
O184        C191   1.272       .  A
O185       Cu188   1.963       .  S
O185        C190   1.274   1_655  A
O186       Cu188   2.018       .  S
O186        C189   1.280       .  A
Cu187      Cu188   2.379   1_455  S
C189        C198   1.460       .  S
C190        C205   1.438       .  S
C191        C237   1.444       .  S
C192        C194   1.461       .  S
C193        C194   1.224       .  T
C195        C196   1.229   1_455  T
C197        C198   1.224       .  T
C199        C200   1.229       .  T
C201        C202   1.399   1_655  A
C201        C206   1.381       .  A
C201        H207   1.084       .  S
C202        C203   1.399       .  A
C203        C204   1.382       .  A
C203        H208   1.084       .  S
C204        C205   1.399       .  A
C204        H209   1.084       .  S
C205        C206   1.398   1_455  A
C206        H210   1.084       .  S
C211        C212   1.224       .  T
C213        C214   1.224       .  T
C215        C216   1.230       .  T
C217        C218   1.401       .  A
C217        C222   1.382       .  A
C217        H223   1.083       .  S
C218        C219   1.400   1_455  A
C219        C220   1.380       .  A
C219        H224   1.083       .  S
C220        C221   1.400   1_655  A
C220        H225   1.083       .  S
C221        C222   1.400       .  A
C222        H226   1.083       .  S
C227        C228   1.223       .  T
C229        C230   1.223       .  T
C231        C232   1.231       .  T
C233        C234   1.400   1_455  A
C233        C238   1.382       .  A
C233        H239   1.084       .  S
C234        C235   1.400       .  A
C235        C236   1.382       .  A
C235        H240   1.083       .  S
C236        C237   1.400       .  A
C236        H241   1.083       .  S
C237        C238   1.400   1_655  A
C238        H242   1.084       .  S
C243        C244   1.400       .  A
C243        C248   1.381       .  A
C243        H249   1.083       .  S
C244        C245   1.400   1_655  A
C245        C246   1.380       .  A
C245        H250   1.083       .  S
C246        C247   1.400       .  A
C246        H251   1.083       .  S
C247        C248   1.401   1_455  A
C248        H252   1.083       .  S
C253        C254   1.224       .  T
C255        C256   1.223       .  T
C257        C258   1.210       .  T
C259        C260   1.209   1_545  T
C261        C262   1.223       .  T
C263        C264   1.229       .  T
C265        C266   1.209   1_545  T
C267        C268   1.210       .  T
C269        C270   1.224       .  T
C271        C272   1.229       .  T
C273        C274   1.396       .  A
C273        C278   1.380       .  A
C273        H279   1.084       .  S
C274        C275   1.398       .  A
C275        C276   1.387       .  A
C275        H280   1.084       .  S
C276        C277   1.398       .  A
C276        H281   1.084       .  S
C277        C278   1.396       .  A
C278        H282   1.084       .  S
C283        C284   1.224       .  T
C285        C286   1.209   1_565  T
C287        C288   1.211       .  T
C289        C290   1.223       .  T
C291        C292   1.229       .  T
C293        C294   1.396       .  A
C293        C298   1.385       .  A
C293        H299   1.084       .  S
C294        C295   1.397       .  A
C295        C296   1.382       .  A
C295        H300   1.084       .  S
C296        C297   1.396       .  A
C296        H301   1.084       .  S
C297        C298   1.397       .  A
C298        H302   1.084       .  S
C303        C304   1.224       .  T
C305        C306   1.210       .  T
C307        C308   1.223       .  T
C309        C310   1.209   1_565  T
C311        C312   1.229       .  T
C313        C314   1.400       .  A
C313        C318   1.389       .  A
C313        H319   1.083       .  S
C314        C315   1.398       .  A
C315        C316   1.377       .  A
C315        H320   1.084       .  S
C316        C317   1.398       .  A
C316        H321   1.084       .  S
C317        C318   1.400       .  A
C318        H322   1.083       .  S
C323        C324   1.398       .  A
C323        C328   1.386       .  A
C323        H329   1.084       .  S
C324        C325   1.398       .  A
C325        C326   1.379       .  A
C325        H330   1.084       .  S
C326        C327   1.397       .  A
C326        H331   1.084       .  S
C327        C328   1.399       .  A
C328        H332   1.084       .  S
C333        C334   1.223       .  T
C335        C336   1.224       .  T
C337        C338   1.211       .  T
C339        C340   1.210       .  T
C341        C342   1.210       .  T
C343        C344   1.210       .  T
C345        C346   1.225       .  T
C347        C348   1.231       .  T
C349        C350   1.209   1_565  T
C351        C352   1.209   1_565  T
C353        C354   1.209       .  T
C355        C356   1.210       .  T
C357        C358   1.223       .  T
C359        C360   1.229       .  T
C361        C362   1.397   1_554  A
C361        C366   1.384       .  A
C361        H367   1.084       .  S
C362        C363   1.396       .  A
C363        C364   1.383       .  A
C363        H368   1.084       .  S
C364        C365   1.396       .  A
C364        H369   1.084       .  S
C365        C366   1.397   1_556  A
C366        H370   1.084       .  S
C371        C372   1.223       .  T
C373        C374   1.209       .  T
C375        C376   1.209       .  T
C377        C378   1.209   1_565  T
C379        C380   1.209   1_565  T
C381        C382   1.223       .  T
C383        C384   1.229       .  T
C385        C386   1.395   1_556  A
C385        C390   1.382       .  A
C385        H391   1.083       .  S
C386        C387   1.396       .  A
C387        C388   1.385       .  A
C387        H392   1.084       .  S
C388        C389   1.397   1_554  A
C388        H393   1.084       .  S
C389        C390   1.395       .  A
C390        H394   1.083       .  S
C395        C396   1.223       .  T
C397        C398   1.210       .  T
C399        C400   1.211       .  T
C401        C402   1.210       .  T
C403        C404   1.225       .  T
C405        C406   1.210       .  T
C407        C408   1.231       .  T
C409        C410   1.396   1_554  A
C409        C414   1.381       .  A
C409        H415   1.084       .  S
C410        C411   1.397       .  A
C411        C412   1.383       .  A
C411        H416   1.084       .  S
C412        C413   1.397       .  A
C412        H417   1.084       .  S
C413        C414   1.396   1_556  A
C414        H418   1.084       .  S
C419        C420   1.396       .  A
C419        C424   1.383       .  A
C419        H425   1.084       .  S
C420        C421   1.396   1_554  A
C421        C422   1.381       .  A
C421        H426   1.084       .  S
C422        C423   1.395       .  A
C422        H427   1.084       .  S
C423        C424   1.396   1_556  A
C424        H428   1.084       .  S
C429        C430   1.223       .  T
C431        C432   1.223       .  T
