geometry optimzed in LAMMPS
_audit_creation_date              2020-11-30 
_audit_creation_method            'lammps2cif' 
_symmetry_space_group_name_H-M    'P1' 
_symmetry_Int_Tables_number       1 
_symmetry_cell_setting            triclinic 
loop_ 
_symmetry_equiv_pos_as_xyz 
  x,y,z 
_cell_length_a                    28.104723045403393 
_cell_length_b                    27.844755640935627 
_cell_length_c                    27.709061619287098 
_cell_angle_alpha                 90.92302567234132 
_cell_angle_beta                  90.8258296429904 
_cell_angle_gamma                 90.68775957438982 
loop_ 
_atom_site_label 
_atom_site_type_symbol 
_atom_site_fract_x 
_atom_site_fract_y 
_atom_site_fract_z 
_atom_site_charge 
C1          C  0.71706976  0.00361679  0.03481945    -0.00500
C2          C  0.72423818  0.68905914  0.71646893    -0.00500
C3          C  0.03125432  0.00920862  0.70601062    -0.00500
C4          C  0.21929022  0.18076286  0.70810617    -0.00500
Zr5        Zr  0.54446170  0.27071765  0.80073584     2.17510
O6          O  0.54812813  0.33204334  0.86173605    -0.49340
O7          O  0.56711000  0.34425902  0.75468274    -0.72540
O8          O  0.62609059  0.27734754  0.79020962    -0.79330
O9          O  0.48014712  0.19107498  0.88693639    -0.81070
O10         O  0.62759232  0.26737087  0.70833754    -0.76700
O11         O  0.55288956  0.22681535  0.87737487    -0.88330
O12         O  0.49999515  0.37323665  0.72104844    -0.74300
O13         O  0.52581996  0.28801948  0.72136237    -0.83790
O14         O  0.46113178  0.28596270  0.80197959    -0.83480
O15         O  0.57229825  0.20225823  0.75390380    -0.70230
O16         O  0.50439666  0.19862378  0.81173859    -0.82370
Zr17       Zr  0.43044788  0.16450095  0.68883015     2.26420
Zr18       Zr  0.55349043  0.22552806  0.67365976     2.06270
Zr19       Zr  0.42417631  0.20976278  0.81937914     2.10050
Zr20       Zr  0.44495513  0.30514664  0.71977300     1.78760
O21         O  0.39625164  0.15033850  0.87572873    -0.91170
O22         O  0.45208034  0.34175438  0.64046371    -0.38980
O23         O  0.40354636  0.23148605  0.73862312    -0.75610
O24         O  0.47022529  0.23824880  0.68091842    -0.94300
O25         O  0.51449791  0.14852988  0.68882854    -0.87600
O26         O  0.44691712  0.14714073  0.76996958    -0.90450
C27         C  0.54501232  0.37515372  0.72850624     1.03310
C28         C  0.52401630  0.19893222  0.90025550     1.16240
C29         C  0.64647948  0.28071742  0.74986469     1.07020
O30         O  0.59141717  0.27978948  0.61763802    -0.92600
O31         O  0.50767102  0.23694336  0.59876154    -0.88340
O32         O  0.44470094  0.18469864  0.60276444    -0.81490
C33         C  0.46726721  0.22006272  0.58320255     1.13660
O34         O  0.60195184  0.12838546  0.81944817    -0.94570
Zr35       Zr  0.52887524  0.12979885  0.77163423     1.88940
O36         O  0.42055696  0.07823693  0.71177148    -0.71220
O37         O  0.59226695  0.16607530  0.62614493    -0.50480
O38         O  0.56978068  0.07809902  0.71820679    -0.95160
O39         O  0.52276452  0.09079596  0.84968736    -0.52380
O40         O  0.47818014  0.05979050  0.76626651    -0.71740
C41         C  0.43897368  0.05070824  0.74396012     1.00600
O42         O  0.35925487  0.16005557  0.63596925    -0.60560
O43         O  0.38121936  0.26554434  0.86675745    -0.55360
O44         O  0.35485454  0.14279021  0.71595707    -0.92050
O45         O  0.34893466  0.16969088  0.79361177    -0.90470
O46         O  0.38719801  0.36178824  0.73972669    -0.90830
O47         O  0.38472816  0.30018426  0.65550122    -0.89610
C48         C  0.33294935  0.14765980  0.75526678     1.19450
H49         H  0.45552833  0.31040149  0.82596012     0.35390
H50         H  0.45483115  0.25398199  0.65524644     0.46240
H51         H  0.42665827  0.12365456  0.78442482     0.39770
H52         H  0.60577066  0.19580111  0.75793057     0.36250
H53         H  0.44794449  0.37671997  0.64560236     0.28040
H54         H  0.56493082  0.15224469  0.60781929     0.33970
H55         H  0.59985617  0.07471046  0.73667671     0.39880
H56         H  0.38618041  0.37770892  0.70815552     0.34340
H57         H  0.35374763  0.24677243  0.87808140     0.33220
H58         H  0.40884734  0.11908952  0.86472320     0.34900
H59         H  0.52881342  0.05630002  0.84347206     0.33870
H60         H  0.37094976  0.26748584  0.65735230     0.37870
H61         H  0.34661150  0.19299176  0.63463545     0.30600
H62         H  0.52350184  0.35500132  0.85157284     0.34830
H63         H  0.60527234  0.09552402  0.83181799     0.37680
H64         H  0.40359755  0.26783837  0.89429891     0.30300
H65         H  0.36724206  0.15204452  0.60219579     0.43170
H66         H  0.57950189  0.31196357  0.62674205     0.33220
H67         H  0.48589487  0.33820096  0.63168216     0.40840
H68         H  0.48867042  0.09213366  0.85788236     0.32690
H69         H  0.61001810  0.18495959  0.60238662     0.32750
H70         H  0.57886852  0.34753286  0.85427209     0.33020
C71         C  0.56698913  0.50154452  0.70015018    -0.00500
C72         C  0.53307892  0.17861490  0.03382924    -0.00500
Zr73       Zr  0.82062318  0.77779321  0.94980727     2.17510
O74         O  0.88266337  0.76469904  0.89089157    -0.49340
O75         O  0.89868822  0.75630648  0.99424010    -0.72540
O76         O  0.81208533  0.86844208  0.97658669    -0.79330
O77         O  0.79470430  0.68133614  0.85915238    -0.81070
O78         O  0.80814281  0.85704555  0.05516387    -0.76700
O79         O  0.78060462  0.75886240  0.86762269    -0.88330
O80         O  0.89606784  0.67762910  0.00741980    -0.74300
O81         O  0.82055432  0.76313695  0.03363550    -0.83790
O82         O  0.82017650  0.69191420  0.95917280    -0.83480
O83         O  0.74719562  0.81447506  0.97775180    -0.70230
O84         O  0.74994671  0.73900612  0.92511945    -0.82370
Zr85       Zr  0.67888969  0.68187531  0.03823172     2.26420
Zr86       Zr  0.74897258  0.79842723  0.06208954     2.06270
Zr87       Zr  0.74953518  0.65517357  0.92521187     2.10050
Zr88       Zr  0.82172724  0.67869425  0.04330433     1.78760
O89         O  0.69448911  0.63611992  0.85887181    -0.91170
O90         O  0.87092289  0.71031992  0.11037950    -0.38980
O91         O  0.75038277  0.64779857  0.01036761    -0.75610
O92         O  0.75280879  0.71398157  0.07396593    -0.94300
O93         O  0.67892612  0.76601301  0.02471894    -0.87600
O94         O  0.67841779  0.69306640  0.95255162    -0.90450
C95         C  0.91781581  0.71705005  0.00996771     1.03310
C96         C  0.77671076  0.71885976  0.84272182     1.16240
C97         C  0.80352665  0.88477606  0.02038307     1.07020
O98         O  0.79285740  0.81893916  0.13611960    -0.92600
O99         O  0.68886866  0.78531282  0.11791556    -0.88340
O100        O  0.68814371  0.70674825  0.12623159    -0.81490
C101        C  0.69779893  0.74960042  0.14307565     1.13660
O102        O  0.70529049  0.83561628  0.88114534    -0.94570
Zr103      Zr  0.68041685  0.77779407  0.94038878     1.88940
O104        O  0.59650131  0.71037018  0.00567816    -0.71220
O105        O  0.69678225  0.86580813  0.07737944    -0.50480
O106        O  0.63832185  0.84878856  0.96827850    -0.95160
O107        O  0.65482371  0.75674284  0.85832678    -0.52380
O108        O  0.59983371  0.76447940  0.94515568    -0.71740
C109        C  0.57690791  0.73921933  0.97402085     1.00600
O110        O  0.61400043  0.65002021  0.08186030    -0.60560
O111        O  0.80127106  0.58782771  0.90715896    -0.55360
O112        O  0.71389564  0.59548786  0.02308821    -0.92050
O113        O  0.70905946  0.58331283  0.94388833    -0.90470
O114        O  0.83414968  0.59355047  0.02857025    -0.90830
O115        O  0.83156971  0.63886254  0.11956024    -0.89610
C116        C  0.72151644  0.56822387  0.98455199     1.19450
H117        H  0.84631879  0.67830478  0.94174528     0.35390
H118        H  0.76232004  0.70698881  0.10658388     0.46240
H119        H  0.65099512  0.67997333  0.93561164     0.39770
H120        H  0.73813823  0.84700387  0.97079097     0.36250
H121        H  0.90152140  0.69310940  0.10900197     0.28040
H122        H  0.71532179  0.88820568  0.09862555     0.33970
H123        H  0.61771989  0.85791361  0.94071491     0.39880
H124        H  0.86897114  0.58918946  0.03146708     0.34340
H125        H  0.80564554  0.58805365  0.87178867     0.33220
H126        H  0.70844327  0.60781139  0.84255695     0.34900
H127        H  0.62151214  0.76754691  0.85558203     0.33870
H128        H  0.80420576  0.64858557  0.13938477     0.37870
H129        H  0.60219273  0.67804209  0.10043947     0.30600
H130        H  0.87388176  0.78156520  0.86164734     0.34830
H131        H  0.69552399  0.86670495  0.89527060     0.37680
H132        H  0.83274818  0.59639118  0.92143681     0.30300
H133        H  0.58911852  0.64368764  0.05690435     0.43170
H134        H  0.82302085  0.80112495  0.13380544     0.33220
H135        H  0.87922095  0.74375898  0.10215316     0.40840
H136        H  0.65205243  0.72130497  0.85789050     0.32690
H137        H  0.69289134  0.88200659  0.04610572     0.32750
H138        H  0.87936857  0.73047069  0.88145145     0.33020
C139        C  0.86467352  0.34354083  0.86718112    -0.00500
C140        C  0.95962934  0.42417766  0.77585011    -0.00500
C141        C  0.77850928  0.44445255  0.94718336    -0.00500
C142        C  0.20150957  0.02015419  0.52193186    -0.00500
C143        C  0.11711582  0.10450903  0.62101149    -0.00500
C144        C  0.05451242  0.69148993  0.03807768    -0.00500
C145        C  0.21941343  0.49988248  0.04211122    -0.00500
C146        C  0.22003235  0.69183206  0.22635831    -0.00500
C147        C  0.13120707  0.58514711  0.14065375    -0.00500
C148        C  0.53735345  0.68447500  0.53761863    -0.00500
Zr149      Zr  0.30499947  0.77999680  0.45224943     2.17510
O150        O  0.36633113  0.78390247  0.39281692    -0.49340
O151        O  0.28197429  0.86946456  0.47840885    -0.72540
O152        O  0.26830569  0.76975641  0.36571631    -0.79330
O153        O  0.38616888  0.76179348  0.56559543    -0.81070
O154        O  0.19119123  0.77970158  0.37611319    -0.76700
O155        O  0.38540384  0.74637702  0.48649995    -0.88330
O156        O  0.26927077  0.86850607  0.55779907    -0.74300
O157        O  0.22294142  0.79426655  0.46351046    -0.83790
O158        O  0.29537742  0.79168439  0.53651584    -0.83480
O159        O  0.26315402  0.70778951  0.42396601    -0.70230
O160        O  0.32657279  0.70893507  0.49433080    -0.82370
Zr161      Zr  0.18737756  0.66843850  0.56160799     2.26420
Zr162      Zr  0.18103032  0.72370462  0.43651969     2.06270
Zr163      Zr  0.31464299  0.72095542  0.57827459     2.10050
Zr164      Zr  0.21236297  0.80885740  0.54738978     1.78760
O165        O  0.37407005  0.65947362  0.59165583    -0.91170
O166        O  0.16464057  0.86251246  0.49703971    -0.38980
O167        O  0.23249259  0.73752585  0.58333099    -0.75610
O168        O  0.16773606  0.74170233  0.52001784    -0.94300
O169        O  0.20237077  0.65304467  0.47746295    -0.87600
O170        O  0.27201924  0.65215843  0.55160646    -0.90450
C171        C  0.27080126  0.89127155  0.51972429     1.03310
C172        C  0.40693169  0.74640479  0.52901115     1.16240
C173        C  0.22468345  0.76974185  0.34882579     1.07020
O174        O  0.11497433  0.77186204  0.40831746    -0.92600
O175        O  0.11326149  0.67658167  0.44986122    -0.88340
O176        O  0.10369201  0.68430506  0.52846357    -0.81490
C177        C  0.08961565  0.69231323  0.48450028     1.13660
O178        O  0.34675663  0.63445368  0.40602579    -0.94570
Zr179      Zr  0.28590586  0.63943244  0.46714772     1.88940
O180        O  0.21613462  0.58210157  0.56130036    -0.71220
O181        O  0.17074072  0.66574408  0.37018498    -0.50480
O182        O  0.27747316  0.58246022  0.39989793    -0.95160
O183        O  0.35110793  0.59393448  0.50214424    -0.52380
O184        O  0.22593440  0.58383285  0.48341038    -0.71740
C185        C  0.23288739  0.56280339  0.52248456     1.00600
O186        O  0.13085189  0.65689020  0.62564746    -0.60560
O187        O  0.33780387  0.77263457  0.64684713    -0.55360
O188        O  0.21066445  0.70718535  0.64102416    -0.92050
O189        O  0.28624063  0.68700792  0.65004922    -0.90470
O190        O  0.21104564  0.82233812  0.63430789    -0.90830
O191        O  0.14379720  0.84331116  0.58700490    -0.89610
C192        C  0.25006200  0.70833245  0.66545153     1.19450
H193        H  0.32060133  0.81301048  0.54740335     0.35390
H194        H  0.13714956  0.75593291  0.52558981     0.46240
H195        H  0.28434087  0.62697595  0.57147126     0.39770
H196        H  0.26972766  0.69616689  0.39175436     0.36250
H197        H  0.15976916  0.89238753  0.51603311     0.28040
H198        H  0.14858721  0.68102863  0.34716060     0.33970
H199        H  0.25744642  0.59898442  0.37579259     0.39880
H200        H  0.24042610  0.84095485  0.64226301     0.34340
H201        H  0.37037320  0.76294357  0.65629657     0.33220
H202        H  0.38975156  0.66900542  0.62262651     0.34900
H203        H  0.35341226  0.56493452  0.48120235     0.33870
H204        H  0.11595277  0.82968297  0.56902713     0.37870
H205        H  0.12774982  0.68885668  0.64114238     0.30600
H206        H  0.34899046  0.79119027  0.36319880     0.34830
H207        H  0.37577755  0.64819004  0.42186611     0.37680
H208        H  0.34136605  0.80545895  0.63405598     0.30300
H209        H  0.10009929  0.65326341  0.60881031     0.43170
H210        H  0.11409750  0.79930638  0.43148836     0.33220
H211        H  0.18443114  0.87277263  0.46973162     0.40840
H212        H  0.34004204  0.58182534  0.53330892     0.32690
H213        H  0.20152829  0.66406189  0.35350388     0.32750
H214        H  0.37479488  0.74972926  0.38890580     0.33020
Zr215      Zr  0.32529387  0.41371921  0.79735956     2.17510
O216        O  0.38750600  0.36774041  0.83668982    -0.49340
O217        O  0.40636965  0.44550099  0.76053137    -0.72540
O218        O  0.31008375  0.32365312  0.76798210    -0.79330
O219        O  0.30230337  0.52501322  0.89111602    -0.81070
O220        O  0.30402911  0.33017564  0.68825249    -0.76700
O221        O  0.29513898  0.44492706  0.88552725    -0.88330
O222        O  0.40247933  0.51543958  0.72061114    -0.74300
O223        O  0.31946369  0.42415413  0.71203414    -0.83790
O224        O  0.32952169  0.49786146  0.78062284    -0.83480
O225        O  0.24840389  0.38060587  0.76966763    -0.70230
O226        O  0.25846055  0.45004309  0.83423589    -0.82370
Zr227      Zr  0.18484648  0.50450304  0.69868354     2.26420
Zr228      Zr  0.24651812  0.38944557  0.68340262     2.06270
Zr229      Zr  0.26178686  0.53306441  0.81766744     2.10050
Zr230      Zr  0.32495999  0.50664763  0.69451802     1.78760
O231        O  0.21072637  0.55881705  0.88317405    -0.91170
O232        O  0.37147433  0.47009624  0.63041906    -0.38980
O233        O  0.25780118  0.52813824  0.73346485    -0.75610
O234        O  0.25452539  0.47135613  0.66103965    -0.94300
O235        O  0.18044281  0.42347340  0.72181483    -0.87600
O236        O  0.18743044  0.50206367  0.78628823    -0.90450
C237        C  0.42576640  0.48125247  0.73705868     1.03310
C238        C  0.29174884  0.48625968  0.91083925     1.16240
C239        C  0.30183835  0.30447026  0.72482483     1.07020
O240        O  0.28399549  0.36883130  0.60734788    -0.92600
O241        O  0.18680771  0.39649927  0.62263129    -0.88340
O242        O  0.18389279  0.47555295  0.61151173    -0.81490
C243        C  0.18818007  0.43188062  0.59482967     1.13660
O244        O  0.19832004  0.36671443  0.87495289    -0.94570
Zr245      Zr  0.18427090  0.42007683  0.80781169     1.88940
O246        O  0.10855231  0.45784563  0.71475211    -0.71220
O247        O  0.19267294  0.32029721  0.68070568    -0.50480
O248        O  0.13796393  0.34802106  0.78803659    -0.95160
O249        O  0.15525455  0.45298695  0.88408973    -0.52380
O250        O  0.10828943  0.45166081  0.79492184    -0.71740
C251        C  0.08933867  0.44306280  0.75432838     1.00600
O252        O  0.12841644  0.56508324  0.68455299    -0.60560
O253        O  0.31985870  0.59834226  0.82866822    -0.55360
O254        O  0.22819592  0.58623768  0.71076548    -0.92050
O255        O  0.21640964  0.59631559  0.78861420    -0.90470
O256        O  0.34425001  0.59160615  0.70602924    -0.90830
O257        O  0.30820788  0.55951374  0.62806762    -0.89610
C258        C  0.23469460  0.61123001  0.75059131     1.19450
H259        H  0.35750953  0.51294719  0.79478898     0.35390
H260        H  0.26091756  0.47508445  0.62716597     0.46240
H261        H  0.16169937  0.52051971  0.79959444     0.39770
H262        H  0.23875297  0.34865613  0.77881553     0.36250
H263        H  0.39677464  0.49402393  0.62369172     0.28040
H264        H  0.20695159  0.29736786  0.65760318     0.33970
H265        H  0.10672707  0.35350752  0.80302187     0.39880
H266        H  0.37414110  0.59720556  0.68836528     0.34340
H267        H  0.31134713  0.61440629  0.85944635     0.33220
H268        H  0.22335611  0.59088974  0.89308598     0.34900
H269        H  0.12290987  0.43912255  0.88770103     0.33870
H270        H  0.31790801  0.54049446  0.59957358     0.37870
H271        H  0.11892941  0.57372831  0.71769941     0.30600
H272        H  0.41824028  0.37890295  0.82371158     0.34830
H273        H  0.16913078  0.36727964  0.89439939     0.37680
H274        H  0.35098179  0.58353641  0.83527469     0.30300
H275        H  0.14916569  0.59148304  0.67411210     0.43170
H276        H  0.31259169  0.38989654  0.60640099     0.33220
H277        H  0.38837929  0.44320958  0.64570506     0.40840
H278        H  0.14979782  0.48746969  0.87843635     0.32690
H279        H  0.19540229  0.30528353  0.71270856     0.32750
H280        H  0.38268849  0.33584815  0.82150226     0.33020
Zr281      Zr  0.04576765  0.64942081  0.70075093     2.17510
O282        O  0.03294459  0.58883248  0.63963438    -0.49340
O283        O  0.03552308  0.57185587  0.74823608    -0.72540
O284        O  0.13297825  0.65934323  0.72569472    -0.79330
O285        O  0.95005432  0.67605764  0.60888286    -0.81070
O286        O  0.11875147  0.65245286  0.80273749    -0.76700
O287        O  0.02679389  0.69166609  0.61948261    -0.88330
O288        O  0.95692949  0.56774513  0.75160985    -0.74300
O289        O  0.02917578  0.64445453  0.78466494    -0.83790
O290        O  0.96077304  0.64480816  0.70967408    -0.83480
O291        O  0.07926003  0.72318812  0.73625612    -0.70230
O292        O  0.01002727  0.72083572  0.67590078    -0.82370
Zr293      Zr  0.95275994  0.78215110  0.80633728     2.26420
Zr294      Zr  0.06557279  0.71418381  0.82060917     2.06270
Zr295      Zr  0.92692891  0.71646178  0.68033927     2.10050
Zr296      Zr  0.94540143  0.63928554  0.79352561     1.78760
O297        O  0.90809633  0.77411028  0.61800825    -0.91170
O298        O  0.96904390  0.59319867  0.86389381    -0.38980
O299        O  0.92196998  0.71252967  0.76554076    -0.75610
O300        O  0.98191597  0.70534583  0.83387424    -0.94300
O301        O  0.03537015  0.78695963  0.78965278    -0.87600
O302        O  0.95990194  0.78589353  0.71979248    -0.90450
C303        C  0.99654564  0.55052664  0.76159831     1.03310
C304        C  0.98747264  0.69510822  0.59370262     1.16240
C305        C  0.14635042  0.66550783  0.77043017     1.07020
O306        O  0.09707292  0.66693161  0.88659118    -0.92600
O307        O  0.05540548  0.76222373  0.88940327    -0.88340
O308        O  0.97735704  0.76198235  0.89505267    -0.81490
C309        C  0.01932547  0.75005350  0.91211958     1.13660
O310        O  0.10958453  0.77937584  0.64993292    -0.94570
Zr311      Zr  0.04360105  0.79139833  0.70421911     1.88940
O312        O  0.99839622  0.85996451  0.78489627    -0.71220
O313        O  0.12780603  0.77409692  0.83704438    -0.50480
O314        O  0.10676988  0.84256288  0.73879303    -0.95160
O315        O  0.03616721  0.81843225  0.62141903    -0.52380
O316        O  0.00009923  0.86087588  0.70482469    -0.71740
C317        C  0.00867494  0.88088703  0.74443761     1.00600
O318        O  0.90590070  0.85133443  0.82636107    -0.60560
O319        O  0.86271467  0.66071642  0.65673441    -0.55360
O320        O  0.86911543  0.74848584  0.78178169    -0.92050
O321        O  0.86330636  0.76468381  0.70424016    -0.90470
O322        O  0.86414240  0.61820868  0.76931120    -0.90830
O323        O  0.88533383  0.63626610  0.85527233    -0.89610
C324        C  0.84601365  0.74514152  0.74045089     1.19450
H325        H  0.94774024  0.61910228  0.68954560     0.35390
H326        H  0.97462270  0.69117548  0.86450256     0.46240
H327        H  0.93948229  0.81111475  0.70846507     0.39770
H328        H  0.11131848  0.73394647  0.73031828     0.36250
H329        H  0.95061413  0.56272601  0.86140964     0.28040
H330        H  0.15232247  0.75819558  0.85692488     0.33970
H331        H  0.11763994  0.86238230  0.71162717     0.39880
H332        H  0.86332726  0.58266901  0.76751155     0.34340
H333        H  0.84816005  0.67498431  0.62762399     0.33220
H334        H  0.88023832  0.75989731  0.60050012     0.34900
H335        H  0.04659169  0.85253686  0.62261377     0.33870
H336        H  0.90123790  0.64940078  0.88479119     0.37870
H337        H  0.92653927  0.87996552  0.82302174     0.30600
H338        H  0.05875306  0.56637766  0.64476294     0.34830
H339        H  0.13854908  0.78170990  0.67058275     0.37680
H340        H  0.87792439  0.63107216  0.64469750     0.30300
H341        H  0.88488032  0.85231589  0.79745785     0.43170
H342        H  0.07526674  0.63879230  0.88814095     0.33220
H343        H  0.00260404  0.58430294  0.85884310     0.40840
H344        H  0.00145444  0.81962511  0.61509625     0.32690
H345        H  0.14252049  0.78167269  0.80584213     0.32750
H346        H  0.03825885  0.60374059  0.60828563     0.33020
C347        C  0.27140753  0.73415100  0.79076147    -0.00500
Zr348      Zr  0.44194138  0.77965349  0.30796483     2.17510
O349        O  0.40592156  0.85059595  0.34093975    -0.49340
O350        O  0.46195236  0.74359776  0.39204480    -0.72540
O351        O  0.35532948  0.74469423  0.29827472    -0.79330
O352        O  0.55661581  0.85709132  0.27788408    -0.81070
O353        O  0.36691156  0.67024072  0.31843102    -0.76700
O354        O  0.47776577  0.85819969  0.26895046    -0.88330
O355        O  0.53979791  0.73388697  0.39012546    -0.74300
O356        O  0.45037205  0.69571285  0.32061341    -0.83790
O357        O  0.52548236  0.76388015  0.31281741    -0.83480
O358        O  0.40577419  0.74339161  0.23607153    -0.70230
O359        O  0.48074042  0.80069217  0.23538894    -0.82370
Zr360      Zr  0.52642509  0.65709329  0.18624023     2.26420
Zr361      Zr  0.41330462  0.65857540  0.25073505     2.06270
Zr362      Zr  0.56279191  0.78274623  0.23932562     2.10050
Zr363      Zr  0.53337746  0.67912789  0.32686740     1.78760
O364        O  0.58348321  0.83881897  0.17631053    -0.91170
O365        O  0.49640270  0.61708401  0.37564416    -0.38980
O366        O  0.55791213  0.70018723  0.25225630    -0.75610
O367        O  0.49391076  0.63709333  0.26333613    -0.94300
O368        O  0.44697716  0.68195681  0.17738336    -0.87600
O369        O  0.52864749  0.74236678  0.17113404    -0.90450
C370        C  0.50181426  0.72869821  0.41145467     1.03310
C371        C  0.52022897  0.87848405  0.26416148     1.16240
C372        C  0.33887409  0.70113731  0.30395803     1.07020
O373        O  0.37182139  0.59235261  0.28914989    -0.92600
O374        O  0.41896080  0.58783131  0.20399826    -0.88340
O375        O  0.49600025  0.57431389  0.20808225    -0.81490
C376        C  0.45256811  0.56122992  0.21576652     1.13660
O377        O  0.39205259  0.83390792  0.16368660    -0.94570
Zr378      Zr  0.44688521  0.76708615  0.16603756     1.88940
O379        O  0.48341366  0.67234788  0.10593643    -0.71220
O380        O  0.35074692  0.65631934  0.18898222    -0.50480
O381        O  0.37706538  0.73762850  0.12080981    -0.95160
O382        O  0.46830559  0.84502067  0.13325563    -0.52380
O383        O  0.48608851  0.75092885  0.09469953    -0.71740
C384        C  0.47432154  0.70979010  0.08029459     1.00600
O385        O  0.55889961  0.60351569  0.13159711    -0.60560
O386        O  0.63400441  0.80207925  0.28747948    -0.55360
O387        O  0.61153152  0.66692517  0.22110775    -0.92050
O388        O  0.62627699  0.74237610  0.20361971    -0.90470
O389        O  0.61736259  0.68482760  0.34950776    -0.90830
O390        O  0.58610991  0.61051952  0.32965539    -0.89610
C391        C  0.63894095  0.70492342  0.22476011     1.19450
H392        H  0.53976000  0.78738904  0.33445856     0.35390
H393        H  0.49680992  0.60647903  0.27897511     0.46240
H394        H  0.54952780  0.74937839  0.14467387     0.39770
H395        H  0.37474264  0.75315004  0.22470676     0.36250
H396        H  0.51858124  0.61147193  0.40296951     0.28040
H397        H  0.32808231  0.63084178  0.19850021     0.33970
H398        H  0.37417896  0.75864627  0.09248613     0.39880
H399        H  0.61836505  0.68610620  0.38524251     0.34340
H400        H  0.64338978  0.83536404  0.27947475     0.33220
H401        H  0.61529990  0.85151480  0.18609689     0.34900
H402        H  0.46160129  0.84217520  0.09812777     0.33870
H403        H  0.58879444  0.59968821  0.29560423     0.37870
H404        H  0.54967949  0.57349459  0.14707882     0.30600
H405        H  0.38073493  0.85623730  0.31647978     0.34830
H406        H  0.37709663  0.83334303  0.13110961     0.37680
H407        H  0.62388074  0.80355587  0.32149354     0.30300
H408        H  0.53607166  0.60798161  0.10479607     0.43170
H409        H  0.39342729  0.58243501  0.31568159     0.33220
H410        H  0.46746932  0.63106852  0.38980768     0.40840
H411        H  0.50337775  0.84680628  0.13579952     0.32690
H412        H  0.33355867  0.68689475  0.19129571     0.32750
H413        H  0.42919522  0.87665824  0.33531125     0.33020
C414        C  0.35461334  0.83677420  0.87025523    -0.00500
C415        C  0.43329253  0.92325408  0.77637163    -0.00500
C416        C  0.43422309  0.73863842  0.95068740    -0.00500
C417        C  0.72260211  0.49919899  0.52273528    -0.00500
Zr418      Zr  0.67199047  0.50707155  0.17824359     2.17510
O419        O  0.64242341  0.57798517  0.14116375    -0.49340
O420        O  0.58701711  0.47540027  0.20844512    -0.72540
O421        O  0.68914610  0.47793818  0.08921383    -0.79330
O422        O  0.70370609  0.60321320  0.27473957    -0.81070
O423        O  0.69323979  0.39800022  0.09220081    -0.76700
O424        O  0.71927597  0.58551976  0.19807417    -0.88330
O425        O  0.58827376  0.45871403  0.28727741    -0.74300
O426        O  0.66371292  0.42421633  0.19441953    -0.83790
O427        O  0.66232883  0.50222067  0.26429488    -0.83480
O428        O  0.74594055  0.47310161  0.14970843    -0.70230
O429        O  0.73943441  0.52658369  0.22440850    -0.82370
Zr430      Zr  0.80122988  0.41301884  0.28770274     2.26420
Zr431      Zr  0.73582511  0.39113881  0.16526332     2.06270
Zr432      Zr  0.73137040  0.53052506  0.30783375     2.10050
Zr433      Zr  0.65856170  0.41779386  0.28043249     1.78760
O434        O  0.77827055  0.60038453  0.33438140    -0.91170
O435        O  0.60510798  0.35227045  0.25482950    -0.38980
O436        O  0.72848796  0.44592114  0.31697081    -0.75610
O437        O  0.72731378  0.38307636  0.25015698    -0.94300
O438        O  0.80776776  0.42299875  0.20264976    -0.87600
O439        O  0.80358473  0.49831069  0.27710650    -0.90450
C440        C  0.56589960  0.46120166  0.24822731     1.03310
C441        C  0.72390611  0.61393448  0.23588784     1.16240
C442        C  0.69778528  0.43596395  0.06888719     1.07020
O443        O  0.67663755  0.32693940  0.15576884    -0.92600
O444        O  0.79290557  0.33341851  0.17879784    -0.88340
O445        O  0.78658289  0.32625749  0.25728376    -0.81490
C446        C  0.77869437  0.30979317  0.21362039     1.13660
O447        O  0.79079452  0.55649966  0.12341789    -0.94570
Zr448      Zr  0.81130249  0.50705475  0.19175984     1.88940
O449        O  0.88586182  0.45317780  0.28199472    -0.71220
O450        O  0.78621640  0.36305753  0.09996988    -0.50480
O451        O  0.86734031  0.47456769  0.13393761    -0.95160
O452        O  0.83582764  0.59019542  0.20582759    -0.52380
O453        O  0.88617227  0.51232991  0.22600433    -0.71740
C454        C  0.90632310  0.48883569  0.25851658     1.00600
O455        O  0.84406692  0.35280139  0.32964272    -0.60560
O456        O  0.67249067  0.54238218  0.37059907    -0.55360
O457        O  0.77099843  0.43020512  0.37238097    -0.92050
O458        O  0.77896235  0.50936347  0.37547412    -0.90470
O459        O  0.64990960  0.43055455  0.36690825    -0.90830
O460        O  0.65011596  0.34078200  0.31870680    -0.89610
C461        C  0.76530190  0.47107701  0.39483218     1.19450
H462        H  0.63670797  0.52291377  0.27389328     0.35390
H463        H  0.71514230  0.35148651  0.25716927     0.46240
H464        H  0.82839057  0.51466851  0.29556867     0.39770
H465        H  0.75980003  0.47655835  0.11833138     0.36250
H466        H  0.57264126  0.36172833  0.26405699     0.28040
H467        H  0.76513867  0.34523527  0.07684487     0.33970
H468        H  0.84753312  0.46343182  0.10603784     0.39880
H469        H  0.61530025  0.42788131  0.37265835     0.34340
H470        H  0.66977986  0.57769107  0.37394135     0.33220
H471        H  0.75995680  0.61467241  0.36116496     0.34900
H472        H  0.86793458  0.59324060  0.19187007     0.33870
H473        H  0.68267772  0.33310095  0.33007346     0.37870
H474        H  0.81884622  0.33164770  0.34227674     0.30600
H475        H  0.66992584  0.59055130  0.12310190     0.34830
H476        H  0.80706857  0.54132121  0.09581638     0.37680
H477        H  0.64154939  0.53149195  0.35665629     0.30300
H478        H  0.85935614  0.33380758  0.30385173     0.43170
H479        H  0.68483607  0.31010162  0.12529813     0.33220
H480        H  0.60503781  0.35235389  0.21917819     0.40840
H481        H  0.84127857  0.59313472  0.24114818     0.32690
H482        H  0.79630532  0.39235723  0.08296426     0.32750
H483        H  0.63885641  0.60090054  0.16839623     0.33020
C484        C  0.70887338  0.18754707  0.21888301    -0.00500
Zr485      Zr  0.79420207  0.91190335  0.80112646     2.17510
O486        O  0.82253352  0.85599361  0.86026773    -0.49340
O487        O  0.87810719  0.93338934  0.76549209    -0.72540
O488        O  0.77841484  0.82897050  0.76624002    -0.79330
O489        O  0.77072649  0.00769744  0.89840938    -0.81070
O490        O  0.78473483  0.84466508  0.68907339    -0.76700
O491        O  0.75659523  0.93022730  0.88300665    -0.88330
O492        O  0.88259096  0.01299505  0.76794325    -0.74300
O493        O  0.80234336  0.93199111  0.71905486    -0.83790
O494        O  0.80762434  0.99720141  0.80112290    -0.83480
O495        O  0.71873886  0.88829566  0.76194826    -0.70230
O496        O  0.72520882  0.95271013  0.82590728    -0.82370
Zr497      Zr  0.67557555  0.02743778  0.70019106     2.26420
Zr498      Zr  0.73056673  0.90664648  0.67868388     2.06270
Zr499      Zr  0.73770629  0.03685683  0.82590340     2.10050
Zr500      Zr  0.81670186  0.01672924  0.71740603     1.78760
O501        O  0.68725654  0.05700611  0.89379184    -0.91170
O502        O  0.85647288  0.97084354  0.65256415    -0.38980
O503        O  0.74628492  0.05334495  0.74290026    -0.75610
O504        O  0.74931217  0.99080014  0.67406799    -0.94300
O505        O  0.66025366  0.94371244  0.70780257    -0.87600
O506        O  0.66708851  0.01420767  0.78396444    -0.90450
C507        C  0.90118172  0.97390717  0.75742248     1.03310
C508        C  0.75266713  0.96813618  0.91066782     1.16240
C509        C  0.77140940  0.81709855  0.72147033     1.07020
O510        O  0.77515649  0.87455454  0.61100684    -0.92600
O511        O  0.68998019  0.92981431  0.60836757    -0.88340
O512        O  0.69990355  0.00824150  0.61174836    -0.81490
C513        C  0.70772877  0.96681495  0.59051087     1.13660
O514        O  0.62683386  0.85543804  0.82953945    -0.94570
Zr515      Zr  0.65241461  0.92962188  0.79205142     1.88940
O516        O  0.59090065  0.98983831  0.71972287    -0.71220
O517        O  0.67044782  0.84564437  0.65818974    -0.50480
O518        O  0.59608446  0.88247626  0.74198987    -0.95160
O519        O  0.63404958  0.93474912  0.87760562    -0.52380
O520        O  0.59010579  0.98231161  0.79955662    -0.71740
C521        C  0.56842456  0.98056800  0.76022060     1.00600
O522        O  0.63895964  0.09238215  0.65987959    -0.60560
O523        O  0.79218638  0.10475760  0.83712454    -0.55360
O524        O  0.70190655  0.10974782  0.73635885    -0.92050
O525        O  0.69472559  0.10773608  0.81662632    -0.90470
O526        O  0.81646914  0.10416755  0.71546582    -0.90830
O527        O  0.86235090  0.06737216  0.66319816    -0.89610
C528        C  0.70373686  0.13054533  0.77905687     1.19450
H529        H  0.83073922  0.00576506  0.82581562     0.35390
H530        H  0.76695546  0.99896487  0.64560122     0.46240
H531        H  0.64491318  0.03718770  0.79626772     0.39770
H532        H  0.70584706  0.85642088  0.76662219     0.36250
H533        H  0.88769212  0.98607571  0.64635711     0.28040
H534        H  0.68639754  0.82254535  0.63644054     0.33970
H535        H  0.60762899  0.84907073  0.74169618     0.39880
H536        H  0.84052989  0.11485476  0.73995495     0.34340
H537        H  0.80024681  0.10560327  0.87200175     0.33220
H538        H  0.70522255  0.08223720  0.91219056     0.34900
H539        H  0.59903602  0.93108006  0.87946529     0.33870
H540        H  0.85377312  0.05690639  0.62990553     0.37870
H541        H  0.63896479  0.12021028  0.68246716     0.30600
H542        H  0.81929425  0.82644317  0.84082193     0.34830
H543        H  0.59183482  0.85754229  0.83248651     0.37680
H544        H  0.82159459  0.09569566  0.82032893     0.30300
H545        H  0.66562260  0.09911593  0.63843316     0.43170
H546        H  0.80611526  0.89194443  0.61231913     0.33220
H547        H  0.86537429  0.93897961  0.66487837     0.40840
H548        H  0.63991814  0.96896313  0.88615877     0.32690
H549        H  0.66427953  0.82796227  0.68807956     0.32750
H550        H  0.79712614  0.85286066  0.88428687     0.33020
C551        C  0.77371364  0.25708251  0.77149401    -0.00500
Zr552      Zr  0.79982387  0.27137513  0.45268148     2.17510
O553        O  0.86280773  0.27337227  0.39564399    -0.49340
O554        O  0.87539459  0.26019898  0.50396528    -0.72540
O555        O  0.78815699  0.35688667  0.48021101    -0.79330
O556        O  0.77694293  0.18904037  0.35278671    -0.81070
O557        O  0.78810110  0.34177057  0.55831530    -0.76700
O558        O  0.76146872  0.26520121  0.36874970    -0.88330
O559        O  0.88343740  0.18106036  0.49785457    -0.74300
O560        O  0.80377183  0.24645506  0.53416904    -0.83790
O561        O  0.80618414  0.18481544  0.45008345    -0.83480
O562        O  0.72435483  0.29824235  0.48500922    -0.70230
O563        O  0.72932017  0.23280169  0.42496971    -0.82370
Zr564      Zr  0.67202679  0.15600293  0.53845895     2.26420
Zr565      Zr  0.73248134  0.27795368  0.56763878     2.06270
Zr566      Zr  0.73609531  0.14953852  0.41493454     2.10050
Zr567      Zr  0.81100928  0.16054084  0.53149613     1.78760
O568        O  0.67754393  0.13695917  0.35034249    -0.91170
O569        O  0.85808124  0.17050460  0.60565940    -0.38980
O570        O  0.74095674  0.13082186  0.49716351    -0.75610
O571        O  0.74563773  0.19318831  0.56876250    -0.94300
O572        O  0.66134947  0.24123337  0.53440518    -0.87600
O573        O  0.66582600  0.17364852  0.45471663    -0.90450
C574        C  0.89877563  0.22111032  0.51266763     1.03310
C575        C  0.75648578  0.22725388  0.34105383     1.16240
C576        C  0.77985988  0.37002854  0.52430437     1.07020
O577        O  0.77689414  0.30718664  0.63839275    -0.92600
O578        O  0.69062132  0.25197830  0.63552236    -0.88340
O579        O  0.69617324  0.17318168  0.62906053    -0.81490
C580        C  0.70622770  0.21356695  0.65231991     1.13660
O581        O  0.64985949  0.33857696  0.41608675    -0.94570
Zr582      Zr  0.65650109  0.25935750  0.45090346     1.88940
O583        O  0.59037530  0.19994369  0.51666372    -0.71220
O584        O  0.67493363  0.34079149  0.58341972    -0.50480
O585        O  0.60003228  0.30615674  0.49812042    -0.95160
O586        O  0.63604228  0.25661431  0.36533550    -0.52380
O587        O  0.58942224  0.21224421  0.43740278    -0.71740
C588        C  0.56766400  0.21090581  0.47607352     1.00600
O589        O  0.62957722  0.08229324  0.55655143    -0.60560
O590        O  0.79088239  0.08763659  0.38814469    -0.55360
O591        O  0.70594177  0.07429790  0.50329253    -0.92050
O592        O  0.70427103  0.07171668  0.42208983    -0.90470
O593        O  0.83984911  0.08278271  0.50441517    -0.90830
O594        O  0.79146558  0.09911916  0.58965112    -0.89610
C595        C  0.71235713  0.05139493  0.46154333     1.19450
H596        H  0.83289795  0.17518882  0.43083485     0.35390
H597        H  0.76335465  0.18571224  0.59770512     0.46240
H598        H  0.64147401  0.15357627  0.43990481     0.39770
H599        H  0.71393778  0.33071930  0.48044559     0.36250
H600        H  0.88870449  0.15466538  0.59909542     0.28040
H601        H  0.69106901  0.36276622  0.60703657     0.33970
H602        H  0.61218917  0.33963463  0.49893614     0.39880
H603        H  0.86739994  0.07645944  0.52596575     0.34340
H604        H  0.78346310  0.08303613  0.35332469     0.33220
H605        H  0.69039407  0.11036104  0.33049243     0.34900
H606        H  0.60271107  0.26759615  0.36312012     0.33870
H607        H  0.75646304  0.09494390  0.58761263     0.37870
H608        H  0.65333124  0.06002926  0.56895421     0.30600
H609        H  0.86114876  0.24092479  0.38077891     0.34830
H610        H  0.61530203  0.34327918  0.41086561     0.37680
H611        H  0.82292200  0.10273882  0.38906999     0.30300
H612        H  0.60800731  0.08895426  0.58320538     0.43170
H613        H  0.80817423  0.29130477  0.63625349     0.33220
H614        H  0.86569922  0.20525345  0.60838328     0.40840
H615        H  0.63395837  0.22199368  0.35686974     0.32690
H616        H  0.67267930  0.35933228  0.55341031     0.32750
H617        H  0.89067590  0.27170104  0.41759329     0.33020
C618        C  0.86268804  0.82945993  0.37550177    -0.00500
C619        C  0.77621242  0.92187871  0.47318542    -0.00500
C620        C  0.96527605  0.75452200  0.46939251    -0.00500
C621        C  0.76241005  0.74070062  0.27132258    -0.00500
C622        C  0.25855283  0.44008624  0.46880925    -0.00500
Zr623      Zr  0.55602300  0.40620110  0.93787786     2.17510
O624        O  0.62421275  0.35187988  0.94146688    -0.49340
O625        O  0.56909349  0.43129311  0.85327323    -0.72540
O626        O  0.53707927  0.32102912  0.95073672    -0.79330
O627        O  0.64045780  0.50585371  0.93498409    -0.81070
O628        O  0.47617408  0.31685680  0.00364540    -0.76700
O629        O  0.63341516  0.42623151  0.91588815    -0.88330
O630        O  0.50643293  0.47607629  0.82981611    -0.74300
O631        O  0.47194753  0.40822340  0.92022389    -0.83790
O632        O  0.54387238  0.48797927  0.91868015    -0.83480
O633        O  0.51860569  0.39438175  0.01301479    -0.70230
O634        O  0.58694383  0.45394598  0.00449445    -0.82370
Zr635      Zr  0.44779065  0.52240423  0.04000662     2.26420
Zr636      Zr  0.43415655  0.39368478  0.99775532     2.06270
Zr637      Zr  0.57143552  0.53476850  0.98237302     2.10050
Zr638      Zr  0.46120231  0.49090553  0.90181555     1.78760
O639        O  0.62161771  0.56127679  0.04827795    -0.91170
O640        O  0.39083329  0.45441142  0.87202586    -0.38980
O641        O  0.49081061  0.52851615  0.97056124    -0.75610
O642        O  0.41762477  0.47350293  0.97304994    -0.94300
O643        O  0.46400787  0.44317765  0.05911453    -0.87600
O644        O  0.53065217  0.51876930  0.05539783    -0.90450
C645        C  0.54860954  0.46045071  0.82423519     1.03310
C646        C  0.65551064  0.46606936  0.91622755     1.16240
C647        C  0.51511948  0.30102628  0.98544051     1.07020
O648        O  0.38587899  0.35357106  0.93813525    -0.92600
O649        O  0.36430760  0.42780263  0.04388621    -0.88340
O650        O  0.36609342  0.50934880  0.04089633    -0.81490
C651        C  0.34665334  0.47014933  0.05270286     1.13660
O652        O  0.60085511  0.37382144  0.08416982    -0.94570
Zr653      Zr  0.54475114  0.43933712  0.07751308     1.88940
O654        O  0.42574354  0.49141691  0.11917105    -0.71220
O655        O  0.39167338  0.34429034  0.05496265    -0.50480
O656        O  0.55559358  0.37865427  0.13864473    -0.95160
O657        O  0.60315851  0.49037372  0.11298185    -0.52380
O658        O  0.48194963  0.43673709  0.13705902    -0.71740
C659        C  0.44189442  0.45683672  0.14444989     1.00600
O660        O  0.43380420  0.59294012  0.08931786    -0.60560
O661        O  0.60394660  0.60892388  0.95316153    -0.55360
O662        O  0.44698960  0.59601752  0.99358698    -0.92050
O663        O  0.51823396  0.60044543  0.95507176    -0.90470
O664        O  0.46252695  0.55789526  0.84641553    -0.90830
O665        O  0.40813312  0.55941901  0.90263693    -0.89610
C666        C  0.47541655  0.61513605  0.96309549     1.19450
H667        H  0.56248853  0.50420722  0.89498849     0.35390
H668        H  0.38428831  0.47678547  0.96514186     0.46240
H669        H  0.53959500  0.53969277  0.08017481     0.39770
H670        H  0.53223083  0.36814958  0.02986608     0.36250
H671        H  0.37125054  0.48310461  0.87074209     0.28040
H672        H  0.37455600  0.31995978  0.03485651     0.33970
H673        H  0.55538769  0.39636952  0.16975796     0.39880
H674        H  0.44447576  0.54650805  0.81739361     0.34340
H675        H  0.63004829  0.61594526  0.97652014     0.33220
H676        H  0.64871173  0.53935367  0.04549989     0.34900
H677        H  0.61887905  0.46539735  0.13185486     0.33870
H678        H  0.38661924  0.55445895  0.93011648     0.37870
H679        H  0.40018634  0.58993192  0.09914201     0.30600
H680        H  0.61826760  0.32306413  0.92084493     0.34830
H681        H  0.61412262  0.37003206  0.05150180     0.37680
H682        H  0.61963501  0.59974751  0.92267368     0.30300
H683        H  0.45247711  0.58669455  0.11895425     0.43170
H684        H  0.41086784  0.34135742  0.91676517     0.33220
H685        H  0.40075803  0.45226229  0.83878881     0.40840
H686        H  0.58528714  0.50936597  0.13624603     0.32690
H687        H  0.41637827  0.32638898  0.07274747     0.32750
H688        H  0.62545841  0.33965948  0.97477360     0.33020
C689        C  0.42555993  0.43498777  0.27069216    -0.00500
C690        C  0.34502846  0.34505158  0.36300705    -0.00500
C691        C  0.42942742  0.26141267  0.46059293    -0.00500
Zr692      Zr  0.43577711  0.02420628  0.54939027     2.17510
O693        O  0.41894142  0.08266134  0.61104044    -0.49340
O694        O  0.41989286  0.10819229  0.52303472    -0.72540
O695        O  0.43705923  0.98921119  0.63045146    -0.79330
O696        O  0.34837208  0.02006313  0.45769598    -0.81070
O697        O  0.50759868  0.94943062  0.63880539    -0.76700
O698        O  0.35319347  0.01933100  0.53938990    -0.88330
O699        O  0.47371345  0.12572620  0.46523203    -0.74300
O700        O  0.52020318  0.03743233  0.54898663    -0.83790
O701        O  0.44593044  0.04203775  0.46767470    -0.83480
O702        O  0.47218725  0.94876578  0.55519084    -0.70230
O703        O  0.40216942  0.95892536  0.50009430    -0.82370
Zr704      Zr  0.54196169  0.91945022  0.43600922     2.26420
Zr705      Zr  0.55501522  0.95970539  0.56442590     2.06270
Zr706      Zr  0.41978425  0.98054293  0.41954349     2.10050
Zr707      Zr  0.52771391  0.05879685  0.46664788     1.78760
O708        O  0.36962341  0.93672157  0.36630776    -0.91170
O709        O  0.54766448  0.11179495  0.53097085    -0.38980
O710        O  0.50053099  0.99024468  0.42709794    -0.75610
O711        O  0.57183590  0.98693676  0.48484568    -0.94300
O712        O  0.52414679  0.89857792  0.51454003    -0.87600
O713        O  0.45809391  0.90455252  0.43281726    -0.90450
C714        C  0.43620683  0.13510115  0.48918621     1.03310
C715        C  0.33182990  0.02943733  0.50037552     1.16240
C716        C  0.46501476  0.96005123  0.65244583     1.07020
O717        O  0.59910505  0.01082518  0.62007275    -0.92600
O718        O  0.62679539  0.91831865  0.52982767    -0.88340
O719        O  0.62386250  0.91696748  0.44788937    -0.81490
C720        C  0.64442470  0.90855582  0.48764385     1.13660
O721        O  0.37315319  0.88202182  0.56580218    -0.94570
Zr722      Zr  0.44175944  0.88431603  0.51337045     1.88940
O723        O  0.55970110  0.84042019  0.47240534    -0.71220
O724        O  0.59021607  0.89710447  0.61299768    -0.50480
O725        O  0.43604745  0.83994253  0.58812022    -0.95160
O726        O  0.39092218  0.84439692  0.45757399    -0.52380
O727        O  0.49535405  0.81660105  0.51427784    -0.71740
C728        C  0.53803269  0.81064751  0.49984100     1.00600
O729        O  0.56399568  0.86739053  0.37023899    -0.60560
O730        O  0.39459430  0.04378144  0.36566951    -0.55360
O731        O  0.54672941  0.96425366  0.36096290    -0.92050
O732        O  0.47503920  0.00100501  0.35290402    -0.90470
O733        O  0.53706366  0.09818324  0.38941625    -0.90830
O734        O  0.60255824  0.07215939  0.42767043    -0.89610
C735        C  0.51818359  0.99287452  0.33928823     1.19450
H736        H  0.42371261  0.06256661  0.45191357     0.35390
H737        H  0.60523628  0.99431957  0.48138627     0.46240
H738        H  0.45152753  0.87942594  0.40959674     0.39770
H739        H  0.45772365  0.92862371  0.57824428     0.36250
H740        H  0.57527712  0.12365092  0.51349223     0.28040
H741        H  0.59144757  0.91055679  0.64625137     0.33970
H742        H  0.46731884  0.84467897  0.60454650     0.39880
H743        H  0.53534755  0.13306328  0.39661454     0.34340
H744        H  0.36768543  0.05885647  0.38234346     0.33220
H745        H  0.34138281  0.95715067  0.36667158     0.34900
H746        H  0.36630273  0.83144414  0.47884341     0.33870
H747        H  0.62335400  0.07661040  0.45634034     0.37870
H748        H  0.59273781  0.88338508  0.35747391     0.30600
H749        H  0.44821159  0.08325117  0.63126063     0.34830
H750        H  0.36932780  0.91536702  0.57797165     0.37680
H751        H  0.41988152  0.06886058  0.36713806     0.30300
H752        H  0.57689478  0.83870723  0.38613075     0.43170
H753        H  0.57362121  0.02931709  0.63583150     0.33220
H754        H  0.52506495  0.13862508  0.53183642     0.40840
H755        H  0.41305551  0.81787095  0.45114842     0.32690
H756        H  0.56556457  0.87143394  0.61377006     0.32750
H757        H  0.39342457  0.06748070  0.62997176     0.33020
C758        C  0.53178584  0.00866616  0.20739203    -0.00500
C759        C  0.03302022  0.48428293  0.21853169    -0.00500
Zr760      Zr  0.94493207  0.40545633  0.43683800     2.17510
O761        O  0.87180380  0.36163645  0.42137892    -0.49340
O762        O  0.98717628  0.32502893  0.45071154    -0.72540
O763        O  0.97826195  0.41275324  0.35117058    -0.79330
O764        O  0.85589113  0.43923290  0.53242889    -0.81070
O765        O  0.05365983  0.40032206  0.36887911    -0.76700
O766        O  0.87007401  0.45681703  0.45639124    -0.88330
O767        O  0.99095143  0.31935713  0.53024159    -0.74300
O768        O  0.02551410  0.39411863  0.45977386    -0.83790
O769        O  0.95159178  0.39953986  0.52410302    -0.83480
O770        O  0.98372849  0.47621142  0.40425417    -0.70230
O771        O  0.92822482  0.47658968  0.47799861    -0.82370
Zr772      Zr  0.04845169  0.53175925  0.54646224     2.26420
Zr773      Zr  0.06483824  0.46141767  0.42745416     2.06270
Zr774      Zr  0.92723791  0.47265910  0.56241573     2.10050
Zr775      Zr  0.03360032  0.39019506  0.54552396     1.78760
O776        O  0.86684455  0.53097683  0.58385894    -0.91170
O777        O  0.10354694  0.34311720  0.52596934    -0.38980
O778        O  0.01010415  0.46315375  0.57781517    -0.75610
O779        O  0.07657433  0.45610844  0.51329221    -0.94300
O780        O  0.03605117  0.53387952  0.46107466    -0.87600
O781        O  0.96418412  0.54274993  0.53051372    -0.90450
C782        C  0.00035847  0.30265330  0.48944372     1.03310
C783        C  0.84404324  0.46130002  0.49515560     1.16240
C784        C  0.02249020  0.41038853  0.33832262     1.07020
O785        O  0.13382168  0.40933893  0.42608150    -0.92600
O786        O  0.11187000  0.53084053  0.43376091    -0.88340
O787        O  0.13048501  0.52240200  0.51003878    -0.81490
C788        C  0.14228246  0.52130059  0.46516386     1.13660
O789        O  0.89895849  0.52431328  0.37809162    -0.94570
Zr790      Zr  0.95406352  0.54566051  0.44371408     1.88940
O791        O  0.01538331  0.61357807  0.52545126    -0.71220
O792        O  0.09941352  0.50202686  0.35890340    -0.50480
O793        O  0.94651370  0.60520951  0.38076863    -0.95160
O794        O  0.88617345  0.58664231  0.47944917    -0.52380
O795        O  0.01639553  0.60072659  0.44740553    -0.71740
C796        C  0.00394439  0.62648797  0.48219837     1.00600
O797        O  0.11474754  0.57307484  0.58556178    -0.60560
O798        O  0.90354500  0.41545031  0.62362931    -0.55360
O799        O  0.01872735  0.49631823  0.62878462    -0.92050
O800        O  0.94401565  0.51949048  0.63218320    -0.90470
O801        O  0.00324742  0.36932419  0.62446765    -0.90830
O802        O  0.09056166  0.38014673  0.61102353    -0.89610
C803        C  0.97833602  0.49935581  0.65229601     1.19450
H804        H  0.93059418  0.37437711  0.53499820     0.35390
H805        H  0.10872150  0.44712126  0.52162759     0.46240
H806        H  0.95065907  0.56942547  0.54804760     0.39770
H807        H  0.98093226  0.48742636  0.37146307     0.36250
H808        H  0.10029057  0.31307378  0.54431963     0.28040
H809        H  0.11432303  0.47683510  0.33885526     0.33970
H810        H  0.96922026  0.59484158  0.35577642     0.39880
H811        H  0.00451658  0.33383318  0.62553252     0.34340
H812        H  0.87661069  0.43102330  0.64009349     0.33220
H813        H  0.84765890  0.51512811  0.60886727     0.34900
H814        H  0.87276482  0.60600819  0.45299258     0.33870
H815        H  0.09094704  0.41166055  0.62809878     0.37870
H816        H  0.13826114  0.54824645  0.59338420     0.30600
H817        H  0.84623784  0.38510748  0.41616173     0.34830
H818        H  0.86804998  0.53695033  0.38885776     0.37680
H819        H  0.88874149  0.38781466  0.60597374     0.30300
H820        H  0.12887772  0.59267767  0.55985066     0.43170
H821        H  0.12116284  0.37606523  0.42419174     0.33220
H822        H  0.09925218  0.33315032  0.49176908     0.40840
H823        H  0.89852432  0.61068520  0.50323883     0.32690
H824        H  0.07212886  0.51419531  0.33991742     0.32750
H825        H  0.86620119  0.34785778  0.45341697     0.33020
C826        C  0.02174138  0.17793747  0.52468105    -0.00500
C827        C  0.26977595  0.91590078  0.96719654    -0.00500
Zr828      Zr  0.93571370  0.01750118  0.05349211     2.17510
O829        O  0.89776267  0.05513772  0.12284569    -0.49340
O830        O  0.92370381  0.10342780  0.03757152    -0.72540
O831        O  0.94071519  0.97803447  0.13172451    -0.79330
O832        O  0.85310519  0.03186033  0.95505414    -0.81070
O833        O  0.01275612  0.94155766  0.13959384    -0.76700
O834        O  0.85420881  0.01266399  0.03376157    -0.88330
O835        O  0.98903457  0.12972361  0.99872432    -0.74300
O836        O  0.01965813  0.03187020  0.05365459    -0.83790
O837        O  0.95007944  0.04526829  0.97429557    -0.83480
O838        O  0.97389534  0.94183546  0.05552118    -0.70230
O839        O  0.90247021  0.95878759  0.99668700    -0.82370
Zr840      Zr  0.04160359  0.92311250  0.92825871     2.26420
Zr841      Zr  0.05644361  0.95431955  0.06189089     2.06270
Zr842      Zr  0.92153411  0.98876328  0.91875409     2.10050
Zr843      Zr  0.03292500  0.05873532  0.97397615     1.78760
O844        O  0.86601246  0.93730730  0.87632424    -0.91170
O845        O  0.09969317  0.07156776  0.02631698    -0.38980
O846        O  0.00345700  0.99662832  0.92522964    -0.75610
O847        O  0.07335892  0.98437713  0.98323283    -0.94300
O848        O  0.02256386  0.90148809  0.00541406    -0.87600
O849        O  0.95769661  0.91118403  0.92558642    -0.90450
C850        C  0.94685374  0.13577886  0.01471832     1.03310
C851        C  0.83512413  0.03253171  0.99757355     1.16240
C852        C  0.96972147  0.95040187  0.15380786     1.07020
O853        O  0.10638484  0.01269844  0.10267417    -0.92600
O854        O  0.12390970  0.91005177  0.02244918    -0.88340
O855        O  0.12302767  0.91892968  0.94078726    -0.81490
C856        C  0.14161933  0.90413438  0.97957876     1.13660
O857        O  0.88941661  0.88935202  0.07457397    -0.94570
Zr858      Zr  0.94212001  0.88382835  0.00531103     1.88940
O859        O  0.06252177  0.84347046  0.96492595    -0.71220
O860        O  0.09337261  0.89211565  0.10987884    -0.50480
O861        O  0.91107521  0.82283333  0.05869566    -0.95160
O862        O  0.90185999  0.84502088  0.94017005    -0.52380
O863        O  0.00475851  0.82491054  0.01761544    -0.71740
C864        C  0.04581350  0.81759337  0.99942703     1.00600
O865        O  0.05713012  0.87238921  0.85855168    -0.60560
O866        O  0.89781167  0.05127259  0.86360442    -0.55360
O867        O  0.04497297  0.97495258  0.85709122    -0.92050
O868        O  0.97230381  0.01000399  0.84987836    -0.90470
O869        O  0.03358101  0.11444380  0.90758598    -0.90990
O870        O  0.09314486  0.07238076  0.91343527    -0.89610
C871        C  0.01549811  0.00343450  0.83615675     1.19450
H872        H  0.93255109  0.07150379  0.96102845     0.35390
H873        H  0.10682433  0.99161068  0.97998291     0.46240
H874        H  0.95141445  0.89126603  0.89754798     0.39770
H875        H  0.96557058  0.91853282  0.07863950     0.36250
H876        H  0.12381333  0.08505747  0.00483281     0.28040
H877        H  0.09642139  0.90555737  0.14302506     0.33970
H878        H  0.93848857  0.81268426  0.07885007     0.39880
H879        H  0.00134229  0.11148601  0.89288811     0.34340
H880        H  0.86752004  0.06253974  0.87671682     0.33220
H881        H  0.84497201  0.92896317  0.90328745     0.34900
H882        H  0.87918765  0.82672199  0.95867496     0.33870
H883        H  0.10365431  0.03991458  0.90356843     0.37870
H884        H  0.07705037  0.89229061  0.83731644     0.30600
H885        H  0.92221691  0.06076858  0.14843913     0.34830
H886        H  0.88028128  0.92345573  0.07795504     0.37680
H887        H  0.91986557  0.07860297  0.87049413     0.30300
H888        H  0.07954391  0.84834225  0.87100101     0.43170
H889        H  0.11169154  0.99725621  0.13398667     0.33220
H890        H  0.08836293  0.09860956  0.04570867     0.40840
H891        H  0.92697824  0.82199806  0.93207083     0.32690
H892        H  0.06879047  0.86649408  0.11194534     0.32750
H893        H  0.87430059  0.03204648  0.13585888     0.33020
C894        C  0.94559926  0.92425080  0.28133062    -0.00500
C895        C  0.95203825  0.25501692  0.96048811    -0.00500
Zr896      Zr  0.29169847  0.27486226  0.93624116     2.17510
O897        O  0.31445858  0.33083086  0.87501062    -0.49340
O898        O  0.37743497  0.25482079  0.97231214    -0.72540
O899        O  0.27060221  0.35925457  0.96649552    -0.79330
O900        O  0.25725405  0.17922947  0.83941237    -0.81070
O901        O  0.27363192  0.35171874  0.04578755    -0.76700
O902        O  0.24769087  0.25718415  0.85618002    -0.88330
O903        O  0.38138054  0.17553026  0.96734599    -0.74300
O904        O  0.30470393  0.25524319  0.01787936    -0.83790
O905        O  0.30418021  0.18898833  0.93563132    -0.83480
O906        O  0.21641768  0.29505526  0.97294616    -0.70230
O907        O  0.22519435  0.22596981  0.91809536    -0.82370
Zr908      Zr  0.17891395  0.15169859  0.03802074     2.26420
Zr909      Zr  0.23270248  0.27862626  0.05570735     2.06270
Zr910      Zr  0.23549590  0.14303713  0.91266101     2.10050
Zr911      Zr  0.31794685  0.16982837  0.01873772     1.78760
O912        O  0.18202704  0.12225040  0.84543820    -0.91170
O913        O  0.36641888  0.21025961  0.08238010    -0.38980
O914        O  0.24847780  0.12747753  0.99585334    -0.75610
O915        O  0.25157260  0.19484353  0.06107349    -0.94300
O916        O  0.16377295  0.23542792  0.02764182    -0.87600
O917        O  0.16490255  0.16448244  0.95310366    -0.90450
C918        C  0.40101236  0.21436360  0.97826271     1.03310
C919        C  0.23965871  0.21939241  0.82893337     1.16240
C920        C  0.26047213  0.37477204  0.00957874     1.07020
O921        O  0.28724245  0.30666036  0.11942265    -0.92600
O922        O  0.18737135  0.25584314  0.12166306    -0.88340
O923        O  0.20140623  0.17864093  0.12494681    -0.81490
C924        C  0.20750285  0.22194851  0.14229168     1.13660
O925        O  0.14896793  0.28340803  0.86366698    -0.94570
Zr926      Zr  0.15148986  0.24875063  0.94325952     1.88940
O927        O  0.09426284  0.16547483  0.00232074    -0.71220
O928        O  0.17197615  0.33490121  0.08127936    -0.50480
O929        O  0.10609261  0.32280170  0.94695072    -0.95160
O930        O  0.10451435  0.20887799  0.87841825    -0.52380
O931        O  0.09397503  0.24382441  0.00129503    -0.71740
C932        C  0.07373873  0.20503666  0.99052314     1.00600
O933        O  0.14891017  0.10265533  0.10213914    -0.60560
O934        O  0.29685261  0.08529589  0.89264057    -0.55360
O935        O  0.20742862  0.06885941  0.00862708    -0.92050
O936        O  0.19670243  0.06900849  0.92833005    -0.90470
O937        O  0.33489035  0.08502993  0.00595010    -0.90830
O938        O  0.34663806  0.11951668  0.08338168    -0.89610
C939        C  0.20896620  0.04756165  0.96618948     1.19450
H940        H  0.32606321  0.18030969  0.91076654     0.35390
H941        H  0.26845868  0.18813217  0.09072863     0.46240
H942        H  0.14073480  0.14352921  0.93931035     0.39770
H943        H  0.20087570  0.32522166  0.96754039     0.36250
H944        H  0.39627496  0.19223781  0.08655209     0.28040
H945        H  0.18945076  0.36168180  0.09775834     0.33970
H946        H  0.11481814  0.33818937  0.97830381     0.39880
H947        H  0.36709780  0.08430348  0.99194196     0.34340
H948        H  0.27933433  0.05785531  0.87735845     0.33220
H949        H  0.19759496  0.09514624  0.82863002     0.34900
H950        H  0.07507586  0.22761838  0.87429138     0.33870
H951        H  0.33650542  0.13626578  0.11319646     0.37870
H952        H  0.17762501  0.09003337  0.11837521     0.30600
H953        H  0.31575804  0.36215749  0.89191111     0.34830
H954        H  0.11708281  0.29782605  0.86107671     0.37680
H955        H  0.31415772  0.09998601  0.86565039     0.30300
H956        H  0.13551149  0.12637080  0.12492868     0.43170
H957        H  0.31714373  0.28921872  0.11366509     0.33220
H958        H  0.37665819  0.24186381  0.07032337     0.40840
H959        H  0.09336375  0.17730987  0.88940223     0.32690
H960        H  0.15881326  0.34853319  0.05127982     0.32750
H961        H  0.28603562  0.33405945  0.85406375     0.33020
Zr962      Zr  0.30407011  0.90990682  0.30207059     2.17510
O963        O  0.31503968  0.86355612  0.37542080    -0.49340
O964        O  0.38841764  0.93928378  0.27881043    -0.72540
O965        O  0.30102980  0.82444800  0.26886585    -0.79330
O966        O  0.27672021  0.01414983  0.39025844    -0.81070
O967        O  0.30205269  0.84244618  0.19199113    -0.76700
O968        O  0.25664820  0.93771163  0.37771795    -0.88330
O969        O  0.37523915  0.93937736  0.20073602    -0.74300
O970        O  0.30666247  0.91830978  0.21632579    -0.83790
O971        O  0.31753571  0.99533439  0.28813248    -0.83480
O972        O  0.22964554  0.87874463  0.26722162    -0.70230
O973        O  0.23756545  0.95535080  0.31856608    -0.82370
Zr974      Zr  0.17740222  0.01093324  0.19395940     2.26420
Zr975      Zr  0.23370172  0.88883572  0.18126425     2.06270
Zr976      Zr  0.24907751  0.03866100  0.31409864     2.10050
Zr977      Zr  0.32045110  0.00167146  0.20274083     1.78760
O978        O  0.20040642  0.07227326  0.37796557    -0.91170
O979        O  0.36087411  0.00456093  0.12561380    -0.38980
O980        O  0.25159961  0.03815654  0.22955722    -0.75610
O981        O  0.24996435  0.97165274  0.16820667    -0.94300
O982        O  0.16524310  0.92803392  0.21186559    -0.87600
O983        O  0.17649007  0.00717070  0.28053474    -0.90450
C984        C  0.40278027  0.94868440  0.23551589     1.03310
C985        C  0.25389563  0.97760521  0.40324553     1.16240
C986        C  0.29666828  0.81155270  0.22383592     1.07020
O987        O  0.26218682  0.84698879  0.10958743    -0.92600
O988        O  0.19053836  0.91172656  0.11057703    -0.88340
O989        O  0.19552614  0.99073738  0.10543795    -0.81490
C990        C  0.20464179  0.94807216  0.08803276     1.13660
O991        O  0.16375440  0.86681510  0.36288442    -0.94570
Zr992      Zr  0.16438660  0.92346125  0.29777580     1.88940
O993        O  0.09777864  0.96758838  0.21503058    -0.71220
O994        O  0.17702439  0.82203392  0.18130078    -0.50480
O995        O  0.11342150  0.86012196  0.26266379    -0.95160
O996        O  0.13389643  0.93974821  0.37833354    -0.52380
O997        O  0.09872146  0.97271745  0.29453501    -0.71740
C998        C  0.07754971  0.96077994  0.25669396     1.00600
O999        O  0.11486968  0.06968395  0.18754334    -0.60560
O1000       O  0.30580664  0.10502949  0.32345354    -0.55360
O1001       O  0.21200447  0.09444524  0.20771388    -0.92050
O1002       O  0.19956925  0.10046424  0.28586550    -0.90470
O1003       O  0.37803878  0.05886458  0.23788765    -0.90830
O1004       O  0.30358383  0.07138858  0.15515692    -0.89610
C1005       C  0.21630307  0.11798835  0.24826155     1.19450
H1006       H  0.34566010  0.00843493  0.30367252     0.35390
H1007       H  0.26511584  0.97729607  0.13790513     0.46240
H1008       H  0.15305924  0.02914218  0.29271671     0.39770
H1009       H  0.22249641  0.84600510  0.27567008     0.36250
H1010       H  0.39506172  0.00876059  0.13391162     0.28040
H1011       H  0.18774356  0.79976019  0.15558419     0.33970
H1012       H  0.12765433  0.82968439  0.27338405     0.39880
H1013       H  0.39111896  0.07607133  0.20994785     0.34340
H1014       H  0.30930166  0.11060385  0.35869351     0.33220
H1015       H  0.21955396  0.09946000  0.39157871     0.34900
H1016       H  0.09967132  0.93074324  0.37692027     0.33870
H1017       H  0.27528123  0.06276231  0.13503926     0.37870
H1018       H  0.08877461  0.05593500  0.20658819     0.30600
H1019       H  0.28237532  0.85208365  0.38166077     0.34830
H1020       H  0.13301906  0.84939213  0.35854745     0.37680
H1021       H  0.33684629  0.09314076  0.31255818     0.30300
H1022       H  0.12532525  0.09771352  0.20740689     0.43170
H1023       H  0.29252215  0.86339506  0.10176473     0.33220
H1024       H  0.35800606  0.97155125  0.11195103     0.40840
H1025       H  0.13395622  0.97522104  0.38137674     0.32690
H1026       H  0.18262686  0.80501250  0.21178273     0.32750
H1027       H  0.32191837  0.88432041  0.40386424     0.33020
Zr1028     Zr  0.03604317  0.15908683  0.18109774     2.17510
O1029       O  0.05365516  0.09855709  0.12194252    -0.49340
O1030       O  0.12067530  0.19172502  0.20261447    -0.72540
O1031       O  0.02679194  0.19568758  0.09670095    -0.79330
O1032       O  0.01709791  0.07049540  0.28505632    -0.81070
O1033       O  0.04251893  0.27217218  0.11336026    -0.76700
O1034       O  0.99856532  0.07731785  0.20759877    -0.88330
O1035       O  0.12350510  0.18668550  0.28221675    -0.74300
O1036       O  0.05748061  0.23911323  0.20640853    -0.83790
O1037       O  0.04587569  0.16179847  0.26707703    -0.83480
O1038       O  0.96927314  0.20735214  0.15572317    -0.70230
O1039       O  0.96328577  0.13421466  0.21765344    -0.82370
Zr1040     Zr  0.92915800  0.26904058  0.30062401     2.26420
Zr1041     Zr  0.99331784  0.28699652  0.17992788     2.06270
Zr1042     Zr  0.97414310  0.13942159  0.30392888     2.10050
Zr1043     Zr  0.06502689  0.24321976  0.29293856     1.78760
O1044       O  0.91241525  0.07886890  0.31586239    -0.91170
O1045       O  0.11153731  0.31195320  0.26481586    -0.38980
O1046       O  0.99300801  0.22037593  0.32553412    -0.75610
O1047       O  0.00334065  0.29325697  0.26585789    -0.94300
O1048       O  0.92062880  0.26175462  0.21449289    -0.87600
O1049       O  0.90999683  0.18599107  0.27816395    -0.90450
C1050       C  0.14189899  0.19988330  0.24444672     1.03310
C1051       C  0.99766206  0.05321372  0.24790319     1.16240
C1052       C  0.02615558  0.24082483  0.08456069     1.07020
O1053       O  0.05263915  0.35122493  0.18783699    -0.92600
O1054       O  0.93086685  0.34084837  0.18892618    -0.88340
O1055       O  0.94113217  0.35501268  0.26649077    -0.81490
C1056       C  0.94339185  0.36948798  0.22194491     1.13660
O1057       O  0.89091419  0.15347119  0.10872167    -0.94570
Zr1058     Zr  0.89917945  0.18114853  0.19195795     1.88940
O1059       O  0.84369704  0.24418993  0.29474963    -0.71220
O1060       O  0.95603419  0.33226162  0.11524830    -0.50480
O1061       O  0.82802927  0.19835504  0.14369787    -0.95160
O1062       O  0.86088526  0.10588844  0.21506449    -0.52380
O1063       O  0.85412152  0.24443300  0.21826376    -0.71740
C1064       C  0.83025702  0.22963684  0.25267886     1.00600
O1065       O  0.93253514  0.32542010  0.36583556    -0.60560
O1066       O  0.02607417  0.11676959  0.37101139    -0.55360
O1067       O  0.95582022  0.23081370  0.38058596    -0.92050
O1068       O  0.93039729  0.15513529  0.37438376    -0.90470
O1069       O  0.09680528  0.22078878  0.37162736    -0.90830
O1070       O  0.08197586  0.30150312  0.35738305    -0.89610
C1071       C  0.94979050  0.18827043  0.39911256     1.19450
H1072       H  0.06657728  0.13579282  0.27558106     0.35390
H1073       H  0.01463671  0.32479343  0.27588723     0.46240
H1074       H  0.88368714  0.17205073  0.29530699     0.39770
H1075       H  0.95612920  0.20713449  0.12342324     0.36250
H1076       H  0.14005391  0.31507949  0.28603766     0.28040
H1077       H  0.98156630  0.34147905  0.09289516     0.33970
H1078       H  0.83602540  0.22776240  0.12566404     0.39880
H1079       H  0.13188288  0.22275740  0.36888225     0.34340
H1080       H  0.01728106  0.08313565  0.37826495     0.33220
H1081       H  0.92228232  0.06218754  0.34560937     0.34900
H1082       H  0.83192381  0.10311449  0.19440889     0.33870
H1083       H  0.05157223  0.30428141  0.37474317     0.37870
H1084       H  0.96738210  0.32906254  0.36884030     0.30600
H1085       H  0.02924092  0.10618965  0.09729628     0.34830
H1086       H  0.86307215  0.13134532  0.10674843     0.37680
H1087       H  0.05871151  0.11518018  0.35817788     0.30300
H1088       H  0.92223042  0.35561414  0.35175895     0.43170
H1089       H  0.07741961  0.34337124  0.16403705     0.33220
H1090       H  0.12339094  0.30361914  0.23233341     0.40840
H1091       H  0.84903757  0.11045693  0.24822171     0.32690
H1092       H  0.93514470  0.30905393  0.09732951     0.32750
H1093       H  0.04185966  0.06793193  0.13501723     0.33020
C1094       C  0.26904909  0.24591636  0.26439420    -0.00500
C1095       C  0.62709991  0.09403367  0.12028043    -0.00500
C1096       C  0.64752969  0.59889162  0.61300980    -0.00500
C1097       C  0.18012578  0.23420424  0.25494466    -0.11280
C1098       C  0.21725352  0.25259036  0.27089314    -0.12840
C1099       C  0.27187844  0.19296371  0.26730625    -0.11280
C1100       C  0.25174223  0.15540617  0.25590647    -0.12840
C1101       C  0.24744129  0.23583516  0.17540874    -0.11280
C1102       C  0.27151021  0.25049794  0.21072685    -0.12840
C1103       C  0.99619126  0.25901082  0.04443850    -0.11280
C1104       C  0.97165750  0.27105267  0.00916364    -0.12840
C1105       C  0.03223355  0.20960434  0.95777864    -0.11280
C1106       C  0.99584560  0.22963846  0.94320062    -0.12840
C1107       C  0.96438349  0.01370440  0.25817322    -0.11280
C1108       C  0.94539330  0.97814259  0.27632683    -0.12840
C1109       C  0.99799290  0.91657001  0.28351362    -0.11280
C1110       C  0.03557474  0.93114889  0.26621921    -0.12840
C1111       C  0.92208388  0.17781373  0.99710386    -0.11280
C1112       C  0.92008256  0.21513189  0.97455664    -0.12840
C1113       C  0.93493808  0.90956565  0.23107492    -0.11280
C1114       C  0.94868945  0.92186975  0.19151524    -0.12840
C1115       C  0.25471269  0.96449710  0.95154593    -0.11280
C1116       C  0.23344067  0.00222946  0.95799884    -0.12840
C1117       C  0.22762926  0.88516647  0.96210849    -0.11280
C1118       C  0.18638248  0.88237810  0.97248649    -0.12840
C1119       C  0.24359440  0.93939929  0.05349494    -0.11280
C1120       C  0.26989302  0.92537573  0.02071369    -0.12840
C1121       C  0.99994613  0.16197447  0.47756159    -0.11280
C1122       C  0.97641300  0.17269573  0.44171202    -0.12840
C1123       C  0.03198834  0.26129979  0.49101493    -0.11280
C1124       C  0.04502651  0.22323863  0.50874521    -0.12840
C1125       C  0.05201208  0.45695767  0.26008424    -0.11280
C1126       C  0.04057973  0.43202986  0.29442060    -0.12840
C1127       C  0.97309337  0.41117145  0.20617836    -0.11280
C1128       C  0.00228598  0.44382686  0.19680297    -0.12840
C1129       C  0.55451750  0.04162853  0.16477798    -0.14440
C1130       C  0.60222311  0.05748031  0.15879036    -0.29620
H1131       H  0.52872350  0.05565525  0.13930426     0.14580
H1132       H  0.62731271  0.04328182  0.18487843     0.15160
C1133       C  0.44326741  0.98078114  0.22398525    -0.11280
C1134       C  0.47825302  0.00327018  0.20885642    -0.12840
C1135       C  0.53590033  0.01825892  0.29824420    -0.11280
C1136       C  0.54298786  0.02690756  0.25625003    -0.12840
C1137       C  0.40899239  0.17426151  0.47094586    -0.11280
C1138       C  0.40556016  0.21441789  0.45537011    -0.12840
C1139       C  0.36864564  0.30081782  0.39655237    -0.14440
C1140       C  0.40796587  0.30341474  0.42815988    -0.29620
H1141       H  0.35059274  0.26630664  0.39431536     0.14580
H1142       H  0.42579933  0.33808607  0.43186529     0.15160
C1143       C  0.31020617  0.31983298  0.32000901    -0.14440
C1144       C  0.30579132  0.27192799  0.30300456    -0.29620
H1145       H  0.28743583  0.34505561  0.30152100     0.14580
H1146       H  0.32965196  0.24680166  0.31994561     0.15160
C1147       C  0.39072922  0.41347705  0.31017865    -0.14440
C1148       C  0.38952480  0.36843146  0.33088629    -0.29620
H1149       H  0.35925314  0.43487609  0.31627335     0.14580
H1150       H  0.41934095  0.34510731  0.32360992     0.15160
C1151       C  0.40689562  0.42465880  0.22218885    -0.11280
C1152       C  0.41337093  0.43633171  0.18116062    -0.12840
C1153       C  0.21667815  0.46693481  0.44277568    -0.11280
C1154       C  0.18316192  0.49399497  0.44859146    -0.12840
C1155       C  0.30126716  0.40145148  0.44078677    -0.14440
C1156       C  0.30773389  0.38681833  0.39249497    -0.29620
H1157       H  0.27694171  0.42180166  0.44626467     0.14580
H1158       H  0.33455089  0.36861575  0.38503852     0.15160
C1159       C  0.96929834  0.66394893  0.47087001    -0.11280
C1160       C  0.95224225  0.70305373  0.46038908    -0.12840
C1161       C  0.73293265  0.89209799  0.47156947    -0.11280
C1162       C  0.69139285  0.89024549  0.48211953    -0.12840
C1163       C  0.91086300  0.90279819  0.32292830    -0.14440
C1164       C  0.90432124  0.85517447  0.33856082    -0.29620
H1165       H  0.88818834  0.92922257  0.33990739     0.14580
H1166       H  0.92732520  0.82912436  0.32145938     0.15160
C1167       C  0.89238451  0.79433306  0.41478449    -0.14440
C1168       C  0.93654598  0.79693302  0.44025287    -0.29620
H1169       H  0.87644297  0.75876284  0.41727325     0.14580
H1170       H  0.95469840  0.83152651  0.43994012     0.15160
C1171       C  0.82734562  0.87213447  0.40384829    -0.14440
C1172       C  0.82154119  0.89114183  0.45161293    -0.29620
H1173       H  0.80034128  0.88491276  0.37891777     0.14580
H1174       H  0.84826991  0.88116615  0.47811833     0.15160
C1175       C  0.79573559  0.78100205  0.30475950    -0.14440
C1176       C  0.82700329  0.78467597  0.34515077    -0.29620
H1177       H  0.78359011  0.74712707  0.31563344     0.14580
H1178       H  0.84073378  0.81469534  0.35282671     0.15160
C1179       C  0.48205018  0.25030692  0.45701028    -0.11280
C1180       C  0.51988575  0.23185801  0.47048492    -0.12840
C1181       C  0.73856620  0.00602607  0.45605123    -0.11280
C1182       C  0.76168113  0.96865847  0.45148662    -0.12840
C1183       C  0.97913840  0.19666784  0.55009293    -0.11280
C1184       C  0.94157609  0.21739415  0.54241698    -0.12840
C1185       C  0.77442535  0.23720359  0.71986539    -0.11280
C1186       C  0.74733975  0.22003854  0.68735759    -0.12840
C1187       C  0.74794469  0.95757796  0.55671558    -0.11280
C1188       C  0.77433612  0.93900086  0.52567277    -0.12840
C1189       C  0.72648296  0.17722388  0.78796887    -0.11280
C1190       C  0.75028119  0.21422558  0.79277723    -0.12840
C1191       C  0.75905441  0.17145332  0.22644656    -0.11280
C1192       C  0.79640192  0.18981489  0.24232687    -0.12840
C1193       C  0.65705244  0.13859057  0.14700014    -0.14440
C1194       C  0.67170787  0.14737062  0.19541818    -0.29620
H1195       H  0.67204379  0.16389729  0.12177874     0.14580
H1196       H  0.65868159  0.12162285  0.22122455     0.15160
C1197       C  0.69833069  0.20322527  0.26943511    -0.11280
C1198       C  0.71778265  0.22124655  0.30554993    -0.12840
C1199       C  0.77772072  0.69023033  0.25621290    -0.11280
C1200       C  0.76014524  0.65233580  0.24023764    -0.12840
C1201       C  0.51742340  0.44070150  0.25247461    -0.11280
C1202       C  0.47824898  0.42642380  0.26711363    -0.12840
C1203       C  0.71749503  0.23527706  0.19650284    -0.11280
C1204       C  0.74330062  0.27131156  0.20217187    -0.12840
C1205       C  0.95609992  0.50489733  0.26220644    -0.11280
C1206       C  0.99509981  0.51229638  0.24329595    -0.12840
C1207       C  0.81012884  0.50016115  0.50372303    -0.11280
C1208       C  0.77293250  0.51663859  0.51991133    -0.12840
C1209       C  0.71216509  0.49027986  0.47066192    -0.11280
C1210       C  0.73076900  0.47679456  0.43319922    -0.12840
C1211       C  0.68279124  0.52881785  0.55171071    -0.14440
C1212       C  0.68797795  0.56989782  0.58091910    -0.29620
H1213       H  0.64709626  0.51355449  0.54917808     0.14580
H1214       H  0.72417972  0.58383772  0.58382433     0.15160
C1215       C  0.75110148  0.41194373  0.53538924    -0.11280
C1216       C  0.72931012  0.44945811  0.53988916    -0.12840
C1217       C  0.45608923  0.65275013  0.93446020    -0.11280
C1218       C  0.43866028  0.69145045  0.92757876    -0.12840
C1219       C  0.43006771  0.91181348  0.72464634    -0.11280
C1220       C  0.44332928  0.92924092  0.68726744    -0.12840
C1221       C  0.52191912  0.95689681  0.76564639    -0.11280
C1222       C  0.48546449  0.93653610  0.77981156    -0.12840
C1223       C  0.31410151  0.85620196  0.90589196    -0.14440
C1224       C  0.31500909  0.89441914  0.93970866    -0.29620
H1225       H  0.27962995  0.83899476  0.90005711     0.14580
H1226       H  0.34845561  0.91381076  0.94493251     0.15160
C1227       C  0.39646427  0.81002706  0.89861321    -0.14440
C1228       C  0.39307424  0.76902300  0.92598284    -0.29620
H1229       H  0.43203724  0.82510802  0.89517373     0.14580
H1230       H  0.35765300  0.75359638  0.92915821     0.15160
C1231       C  0.37729873  0.88175861  0.84259952    -0.14440
C1232       C  0.41396426  0.88085662  0.80916297    -0.29620
H1233       H  0.36130186  0.91645387  0.84943136     0.14580
H1234       H  0.43048065  0.84630632  0.80288938     0.15160
C1235       C  0.71034644  0.73007005  0.28332768    -0.11280
C1236       C  0.67407267  0.71267541  0.26400554    -0.12840
C1237       C  0.42693129  0.48813212  0.27067788    -0.11280
C1238       C  0.44053933  0.52322896  0.24868164    -0.12840
C1239       C  0.44248939  0.70998296  0.03886857    -0.11280
C1240       C  0.42551983  0.72560145  0.00154621    -0.12840
C1241       C  0.54259789  0.95621644  0.21104916    -0.11280
C1242       C  0.53112475  0.91933348  0.23271441    -0.12840
C1243       C  0.29998244  0.76246321  0.83322285    -0.14440
C1244       C  0.32932662  0.80307548  0.82907384    -0.29620
H1245       H  0.29522829  0.74854919  0.86917648     0.14580
H1246       H  0.33355455  0.81543526  0.79239711     0.15160
C1247       C  0.97965752  0.73304531  0.55840139    -0.11280
C1248       C  0.96605527  0.75616496  0.52328332    -0.12840
C1249       C  0.21978879  0.72341179  0.79888528    -0.11280
C1250       C  0.18458336  0.69931919  0.78593433    -0.12840
C1251       C  0.20641664  0.42167582  0.54667337    -0.11280
C1252       C  0.23027035  0.41750470  0.51015994    -0.12840
C1253       C  0.27196899  0.64774964  0.75847114    -0.11280
C1254       C  0.28762499  0.68450994  0.77860312    -0.12840
C1255       C  0.26365763  0.52046571  0.51946177    -0.11280
C1256       C  0.27774578  0.48384845  0.49864921    -0.12840
C1257       C  0.25794968  0.74367593  0.70318573    -0.11280
C1258       C  0.27001631  0.75662623  0.74345021    -0.12840
C1259       C  0.01798748  0.75220734  0.46178721    -0.11280
C1260       C  0.05327153  0.72829886  0.47260879    -0.12840
C1261       C  0.56285156  0.77010093  0.51927478    -0.11280
C1262       C  0.56448897  0.72998063  0.53554431    -0.12840
C1263       C  0.56237702  0.64512152  0.57194403    -0.14440
C1264       C  0.61038853  0.63106459  0.57329356    -0.29620
H1265       H  0.54002877  0.63173255  0.60050617     0.14580
H1266       H  0.61972132  0.60913408  0.59735232     0.15160
C1267       C  0.50731010  0.69489602  0.45091612    -0.11280
C1268       C  0.52579729  0.67451158  0.48568897    -0.12840
C1269       C  0.45091944  0.72048015  0.54045463    -0.11280
C1270       C  0.48820581  0.69995506  0.55143557    -0.12840
C1271       C  0.08934965  0.55913389  0.17514453    -0.14440
C1272       C  0.07418398  0.51012180  0.18340307    -0.29620
H1273       H  0.06980522  0.58537857  0.19609549     0.14580
H1274       H  0.09463558  0.48352037  0.16396364     0.15160
C1275       C  0.29522118  0.68146997  0.27955033    -0.11280
C1276       C  0.26029276  0.66938708  0.25376107    -0.12840
C1277       C  0.20971271  0.74707793  0.30251236    -0.11280
C1278       C  0.19991110  0.72112666  0.26698237    -0.12840
C1279       C  0.27309348  0.76649584  0.20816676    -0.11280
C1280       C  0.24704109  0.73095616  0.20199893    -0.12840
C1281       C  0.18074629  0.66231142  0.19023886    -0.14440
C1282       C  0.17080344  0.61262674  0.17823400    -0.29620
H1283       H  0.15729317  0.68700035  0.17192143     0.14580
H1284       H  0.19275043  0.58760693  0.19796424     0.15160
C1285       C  0.30120209  0.47726632  0.07445386    -0.11280
C1286       C  0.26156936  0.49404988  0.07353737    -0.12840
C1287       C  0.24152672  0.50781290  0.99241055    -0.11280
C1288       C  0.26488929  0.49451667  0.95648919    -0.12840
C1289       C  0.18187005  0.54000745  0.06376262    -0.14440
C1290       C  0.16117005  0.54341300  0.11049664    -0.29620
H1291       H  0.17502762  0.56989085  0.04010960     0.14580
H1292       H  0.17124842  0.51400822  0.13358606     0.15160
C1293       C  0.20503355  0.44877033  0.03353849    -0.11280
C1294       C  0.22469241  0.41196526  0.01879188    -0.12840
C1295       C  0.07848153  0.74060964  0.03868774    -0.11280
C1296       C  0.07396241  0.78057326  0.02202137    -0.12840
C1297       C  0.04525239  0.68888435  0.98357216    -0.11280
C1298       C  0.02851258  0.71241564  0.94913183    -0.12840
C1299       C  0.08500744  0.64416727  0.06351708    -0.14440
C1300       C  0.10313945  0.62601866  0.10881893    -0.29620
H1301       H  0.06954571  0.67460159  0.08385857     0.14580
H1302       H  0.10239354  0.61773355  0.06964204     0.15160
C1303       C  0.08840965  0.14162718  0.58611616    -0.14440
C1304       C  0.05072559  0.13628483  0.55287696    -0.29620
H1305       H  0.09944958  0.17900666  0.59053949     0.14580
H1306       H  0.03692887  0.09998532  0.54753828     0.15160
C1307       C  0.24434642  0.05064768  0.51891137    -0.11280
C1308       C  0.28563580  0.05004042  0.50690582    -0.12840
C1309       C  0.19352647  0.00605691  0.47016681    -0.11280
C1310       C  0.21476124  0.98762106  0.43610552    -0.12840
C1311       C  0.24678683  0.93775987  0.52681343    -0.11280
C1312       C  0.22160786  0.97273704  0.53775097    -0.12840
C1313       C  0.15735259  0.04730877  0.54845580    -0.14440
C1314       C  0.15615463  0.06970268  0.59456261    -0.29620
H1315       H  0.12596664  0.05215692  0.52586915     0.14580
H1316       H  0.18766318  0.06329250  0.61648688     0.15160
C1317       C  0.74272920  0.44968270  0.90909368    -0.11280
C1318       C  0.70295691  0.46231411  0.89995806    -0.12840
C1319       C  0.75190279  0.42367632  0.98917796    -0.11280
C1320       C  0.72417128  0.42933164  0.02329696    -0.12840
C1321       C  0.96490403  0.46647408  0.69120427    -0.11280
C1322       C  0.95141274  0.44171085  0.72519021    -0.12840
C1323       C  0.99292405  0.50840969  0.79168147    -0.11280
C1324       C  0.97299575  0.47021810  0.80070825    -0.12840
C1325       C  0.00654643  0.40183887  0.76900427    -0.11280
C1326       C  0.04647142  0.41346332  0.75606071    -0.12840
C1327       C  0.88698520  0.30011226  0.89977977    -0.14440
C1328       C  0.93121361  0.29663569  0.92498021    -0.29620
H1329       H  0.86215892  0.27076599  0.90589158     0.14580
H1330       H  0.95598463  0.32623607  0.92003144     0.15160
C1331       C  0.82686402  0.37197243  0.90211419    -0.14440
C1332       C  0.82505369  0.41833329  0.92400789    -0.29620
H1333       H  0.79502348  0.35057303  0.90832878     0.14580
H1334       H  0.85657987  0.44088736  0.92099720     0.15160
C1335       C  0.91685328  0.39138506  0.79809279    -0.14440
C1336       C  0.90673167  0.37860609  0.84626822    -0.29620
H1337       H  0.89180650  0.37762176  0.77096081     0.14580
H1338       H  0.93058865  0.39407898  0.87359765     0.15160
C1339       C  0.82001925  0.27589881  0.80362187    -0.14440
C1340       C  0.82978285  0.32261079  0.82310938    -0.29620
H1341       H  0.84372965  0.24773839  0.81524903     0.14580
H1342       H  0.80709606  0.35027511  0.80845956     0.15160
C1343       C  0.78150397  0.49559743  0.96658662    -0.11280
C1344       C  0.75771464  0.52976549  0.98230557    -0.12840
C1345       C  0.52595303  0.74684599  0.96734291    -0.11280
C1346       C  0.48483443  0.75513702  0.95430691    -0.12840
C1347       C  0.96307732  0.71481204  0.03613940    -0.11280
C1348       C  0.00239239  0.70137311  0.04984344    -0.12840
C1349       C  0.72973962  0.75775047  0.18475762    -0.11280
C1350       C  0.75327370  0.76055442  0.22238134    -0.12840
C1351       C  0.54942862  0.22877672  0.03356666    -0.11280
C1352       C  0.54040487  0.26563142  0.01277496    -0.12840
C1353       C  0.47956917  0.18723167  0.02854261    -0.11280
C1354       C  0.44484797  0.20610670  0.00776050    -0.12840
C1355       C  0.55552538  0.15020076  0.07954271    -0.14440
C1356       C  0.59200678  0.11605468  0.07867980    -0.29620
H1357       H  0.54484453  0.16302103  0.11490234     0.14580
H1358       H  0.60160651  0.10560473  0.04219808     0.15160
C1359       C  0.47555766  0.48552785  0.72374646    -0.11280
C1360       C  0.51407190  0.49788857  0.70723137    -0.12840
C1361       C  0.57650388  0.48489062  0.78831921    -0.11280
C1362       C  0.58444016  0.50509522  0.75051095    -0.12840
C1363       C  0.58295548  0.54260910  0.66380098    -0.14440
C1364       C  0.62887650  0.55804581  0.65352133    -0.29620
H1365       H  0.55430411  0.56035135  0.64481884     0.14580
H1366       H  0.65721625  0.54066097  0.67345632     0.15160
C1367       C  0.42710713  0.26949091  0.51316994    -0.11280
C1368       C  0.44157501  0.24992714  0.54952400    -0.12840
C1369       C  0.69482923  0.29719179  0.75435138    -0.11280
C1370       C  0.73578228  0.29250985  0.76721695    -0.12840
C1371       C  0.57119426  0.41142251  0.70230855    -0.11280
C1372       C  0.57922065  0.45158138  0.68723007    -0.12840
C1373       C  0.54132937  0.17350828  0.94239316    -0.11280
C1374       C  0.54601378  0.16228197  0.98459592    -0.12840
C1375       C  0.41278584  0.00987198  0.76185313    -0.11280
C1376       C  0.40913919  0.96996434  0.77876653    -0.12840
C1377       C  0.20506328  0.21804599  0.78902620    -0.11280
C1378       C  0.19287310  0.20107075  0.74954546    -0.12840
C1379       C  0.19305309  0.15501771  0.66263982    -0.14440
C1380       C  0.14531410  0.14188902  0.65771299    -0.29620
H1381       H  0.21688926  0.14086055  0.63558811     0.14580
H1382       H  0.12276399  0.16004643  0.68362512     0.15160
C1383       C  0.25496223  0.22159895  0.70040457    -0.11280
C1384       C  0.28061475  0.25614996  0.71410727    -0.12840
C1385       C  0.28457061  0.13347378  0.75096611    -0.11280
C1386       C  0.24833890  0.14378247  0.73049915    -0.12840
C1387       C  0.03848595  0.03505153  0.75228809    -0.11280
C1388       C  0.03164461  0.02956046  0.79490894    -0.12840
C1389       C  0.94308885  0.98055095  0.72620536    -0.11280
C1390       C  0.97819726  0.99804694  0.70561816    -0.12840
C1391       C  0.04858274  0.96073945  0.71841915    -0.11280
C1392       C  0.03759630  0.92374549  0.73904800    -0.12840
C1393       C  0.05583588  0.03357818  0.65923983    -0.14440
C1394       C  0.08413557  0.07553905  0.65977138    -0.29620
H1395       H  0.05174960  0.01430479  0.62506848     0.14580
H1396       H  0.08606862  0.09068934  0.69604783     0.15160
C1397       C  0.73938198  0.77778166  0.70712977    -0.11280
C1398       C  0.71945825  0.73898451  0.70023651    -0.12840
C1399       C  0.81253469  0.70553033  0.72910035    -0.11280
C1400       C  0.77688306  0.68289820  0.71478811    -0.12840
C1401       C  0.73968825  0.71078986  0.80606434    -0.11280
C1402       C  0.71915911  0.69523630  0.76961006    -0.12840
C1403       C  0.68987652  0.64866744  0.69143320    -0.14440
C1404       C  0.68113072  0.63998690  0.64216874    -0.29620
H1405       H  0.67033378  0.62629257  0.71620388     0.14580
H1406       H  0.69995173  0.66408481  0.61840192     0.15160
C1407       C  0.78874805  0.05106152  0.00612560    -0.11280
C1408       C  0.75027814  0.04272359  0.02300360    -0.12840
C1409       C  0.71753967  0.97104391  0.94880518    -0.11280
C1410       C  0.70046963  0.98608810  0.98653149    -0.12840
C1411       C  0.75009955  0.96204792  0.04609328    -0.11280
C1412       C  0.77771821  0.92966468  0.03302757    -0.12840
C1413       C  0.67611039  0.02008577  0.07229929    -0.14440
C1414       C  0.66823259  0.06743900  0.08898833    -0.29620
H1415       H  0.65141416  0.99238679  0.08367250     0.14580
H1416       H  0.69238078  0.09346649  0.07347170     0.15160
loop_ 
_geom_bond_atom_site_label_1 
_geom_bond_atom_site_label_2 
_geom_bond_distance 
_geom_bond_site_symmetry_2 
_ccdc_geom_bond_type 
C1         C1408   1.470       .  S
C1         C1410   1.484   1_544  S
C1         C1411   1.526   1_545  S
C1         C1413   1.627       .  S
C2         C1398   1.475       .  S
C2         C1400   1.493       .  S
C2         C1402   1.489       .  S
C2         C1403   1.615       .  S
C3         C1387   1.471       .  S
C3         C1390   1.519   1_445  S
C3         C1391   1.484   1_545  S
C3         C1393   1.631       .  S
C4         C1378   1.484       .  S
C4         C1383   1.526       .  S
C4         C1386   1.462       .  S
C4         C1379   1.605       .  S
Zr5           O6   2.384       .  S
Zr5           O7   2.511       .  S
Zr5           O8   2.322       .  S
Zr5          O11   2.477       .  S
Zr5          O13   2.313       .  S
Zr5          O14   2.386       .  S
Zr5          O15   2.432       .  S
Zr5          O16   2.316       .  S
O6           H62   0.989       .  S
O6           H70   0.987       .  S
O7           C27   1.293       .  A
O8           C29   1.268       .  A
O9          Zr19   2.493       .  S
O9           C28   1.297       .  A
O10         Zr18   2.543       .  S
O10          C29   1.307       .  A
O11          C28   1.296       .  A
O12         Zr20   2.432       .  S
O12          C27   1.279       .  A
O13         Zr18   2.317       .  S
O13         Zr20   2.328       .  S
O14         Zr19   2.410       .  S
O14         Zr20   2.387       .  S
O14          H49   0.959       .  S
O15         Zr18   2.380       .  S
O15         Zr35   2.407       .  S
O15          H52   0.965       .  S
O16         Zr19   2.292       .  S
O16         Zr35   2.316       .  S
Zr17         O42   2.463       .  S
Zr17         O36   2.508       .  S
Zr17         O44   2.340       .  S
Zr17         O32   2.496       .  S
Zr17         O23   2.436       .  S
Zr17         O24   2.341       .  S
Zr17         O25   2.409       .  S
Zr17         O26   2.348       .  S
Zr18         O37   2.382       .  S
Zr18         O30   2.432       .  S
Zr18         O31   2.454       .  S
Zr18         O24   2.382       .  S
Zr18         O25   2.441       .  S
Zr19         O21   2.425       .  S
Zr19         O43   2.370       .  S
Zr19         O45   2.470       .  S
Zr19         O23   2.392       .  S
Zr19         O26   2.302       .  S
Zr20         O46   2.343       .  S
Zr20         O47   2.440       .  S
Zr20         O22   2.447       .  S
Zr20         O23   2.414       .  S
Zr20         O24   2.263       .  S
O21          H58   0.989       .  S
O22          H53   0.990       .  S
O22          H67   0.990       .  S
O24          H50   0.944       .  S
O25         Zr35   2.391       .  S
O26         Zr35   2.359       .  S
O26          H51   0.958       .  S
C27        C1371   1.452       .  S
C28        C1373   1.456       .  S
C29        C1369   1.432       .  S
O30          H66   0.990       .  S
O31          C33   1.289       .  A
O32          C33   1.295       .  A
C33        C1368   1.450       .  S
O34         Zr35   2.429       .  S
O34          H63   0.987       .  S
Zr35         O38   2.368       .  S
Zr35         O39   2.443       .  S
Zr35         O40   2.402       .  S
O36          C41   1.292       .  A
O37          H54   0.986       .  S
O37          H69   0.986       .  S
O38          H55   0.988       .  S
O39          H59   0.990       .  S
O39          H68   0.989       .  S
O40          C41   1.276       .  A
C41        C1375   1.445       .  S
O42          H61   0.989       .  S
O42          H65   0.988       .  S
O43          H57   0.985       .  S
O43          H64   0.983       .  S
O44          C48   1.265       .  A
O45          C48   1.291       .  A
O46          H56   0.987       .  S
O47          H60   0.988       .  S
C48        C1385   1.414       .  S
C71        C1360   1.505       .  S
C71        C1362   1.474       .  S
C71        C1372   1.477       .  S
C71        C1363   1.600       .  S
C72        C1351   1.465       .  S
C72        C1353   1.531       .  S
C72        C1374   1.483   1_554  S
C72        C1355   1.628       .  S
Zr73         O74   2.432       .  S
Zr73         O75   2.582       .  S
Zr73         O76   2.634       .  S
Zr73         O79   2.569       .  S
Zr73         O81   2.365   1_556  S
Zr73         O82   2.409       .  S
Zr73         O83   2.444       .  S
Zr73         O84   2.338       .  S
O74         H130   0.973       .  S
O74         H138   0.987       .  S
O75          C95   1.302   1_556  A
O76          C97   1.316   1_556  A
O77         Zr87   2.362       .  S
O77          C96   1.255       .  A
O78         Zr86   2.328       .  S
O78          C97   1.251       .  A
O79          C96   1.303       .  A
O80         Zr88   2.327       .  S
O80          C95   1.250       .  A
O81         Zr86   2.388       .  S
O81         Zr88   2.371       .  S
O82         Zr87   2.396       .  S
O82         Zr88   2.366   1_556  S
O82         H117   0.963       .  S
O83         Zr86   2.386   1_556  S
O83        Zr103   2.345       .  S
O83         H120   0.965       .  S
O84         Zr87   2.334       .  S
O84        Zr103   2.286       .  S
Zr85        O110   2.373       .  S
Zr85        O104   2.610       .  S
Zr85        O112   2.639       .  S
Zr85        O100   2.533       .  S
Zr85         O91   2.367       .  S
Zr85         O92   2.442       .  S
Zr85         O93   2.378       .  S
Zr85         O94   2.399   1_554  S
Zr86        O105   2.431       .  S
Zr86         O98   2.435       .  S
Zr86         O99   2.336       .  S
Zr86         O92   2.383       .  S
Zr86         O93   2.373       .  S
Zr87         O89   2.433       .  S
Zr87        O111   2.437       .  S
Zr87        O113   2.358       .  S
Zr87         O91   2.372   1_556  S
Zr87         O94   2.398       .  S
Zr88        O114   2.429       .  S
Zr88        O115   2.416       .  S
Zr88         O90   2.447       .  S
Zr88         O91   2.340       .  S
Zr88         O92   2.346       .  S
O89         H126   0.990       .  S
O90         H121   0.990       .  S
O90         H135   0.988       .  S
O92         H118   0.962       .  S
O93        Zr103   2.366   1_554  S
O94        Zr103   2.389       .  S
O94         H119   0.962       .  S
C95        C1347   1.458       .  S
C96        C1401   1.457       .  S
C97        C1412   1.492       .  S
O98         H134   0.990       .  S
O99         C101   1.249       .  A
O100        C101   1.298       .  A
C101       C1349   1.466       .  S
O102       Zr103   2.422       .  S
O102        H131   0.988       .  S
Zr103       O106   2.437       .  S
Zr103       O107   2.435       .  S
Zr103       O108   2.297       .  S
O104        C109   1.318   1_554  A
O105        H122   0.989       .  S
O105        H137   0.989       .  S
O106        H123   0.990       .  S
O107        H127   0.989       .  S
O107        H136   0.989       .  S
O108        C109   1.254       .  A
C109       C1345   1.460       .  S
O110        H129   0.991       .  S
O110        H133   0.989       .  S
O111        H125   0.990       .  S
O111        H132   0.989       .  S
O112        C116   1.322   1_554  A
O113        C116   1.255       .  A
O114        H124   0.990       .  S
O115        H128   0.989       .  S
C116       C1344   1.487       .  S
C139       C1327   1.646       .  S
C139       C1331   1.649       .  S
C139       C1336   1.642       .  S
C139       C1340   1.650       .  S
C140       C1322   1.509       .  S
C140       C1324   1.487       .  S
C140       C1325   1.478   1_655  S
C140       C1335   1.635       .  S
C141       C1317   1.457       .  S
C141       C1319   1.511       .  S
C141       C1343   1.515       .  S
C141       C1332   1.638       .  S
C142       C1307   1.469       .  S
C142       C1309   1.494       .  S
C142       C1312   1.511   1_545  S
C142       C1313   1.638       .  S
C143       C1303   1.638       .  S
C143       C1314   1.645       .  S
C143       C1380   1.634       .  S
C143       C1394   1.644       .  S
C144       C1295   1.517       .  S
C144       C1297   1.529   1_554  S
C144       C1348   1.532       .  S
C144       C1299   1.734       .  S
C145       C1286   1.472       .  S
C145       C1287   1.537   1_554  S
C145       C1293   1.489       .  S
C145       C1289   1.657       .  S
C146       C1276   1.502       .  S
C146       C1278   1.501       .  S
C146       C1280   1.496       .  S
C146       C1281   1.678       .  S
C147       C1271   1.690       .  S
C147       C1282   1.682       .  S
C147       C1290   1.664       .  S
C147       C1300   1.652       .  S
C148       C1262   1.473       .  S
C148       C1268   1.491       .  S
C148       C1270   1.505       .  S
C148       C1263   1.623       .  S
Zr149       O150   2.404       .  S
Zr149       O151   2.673       .  S
Zr149       O152   2.606       .  S
Zr149       O155   2.627       .  S
Zr149       O157   2.369       .  S
Zr149       O158   2.372       .  S
Zr149       O159   2.430       .  S
Zr149       O160   2.393       .  S
O150        H206   0.974       .  S
O150        H214   0.988       .  S
O151        C171   1.331       .  A
O152        C173   1.306       .  A
O153       Zr163   2.331       .  S
O153        C172   1.249       .  A
O154       Zr162   2.324       .  S
O154        C173   1.247       .  A
O155        C172   1.316       .  A
O156       Zr164   2.304       .  S
O156        C171   1.241       .  A
O157       Zr162   2.383       .  S
O157       Zr164   2.377       .  S
O158       Zr163   2.365       .  S
O158       Zr164   2.409       .  S
O158        H193   0.961       .  S
O159       Zr162   2.385       .  S
O159       Zr179   2.355       .  S
O159        H196   0.966       .  S
O160       Zr163   2.374       .  S
O160       Zr179   2.344       .  S
Zr161       O186   2.421       .  S
Zr161       O180   2.545       .  S
Zr161       O188   2.510       .  S
Zr161       O176   2.559       .  S
Zr161       O167   2.356       .  S
Zr161       O168   2.425       .  S
Zr161       O169   2.408       .  S
Zr161       O170   2.446       .  S
Zr162       O181   2.438       .  S
Zr162       O174   2.430       .  S
Zr162       O175   2.337       .  S
Zr162       O168   2.395       .  S
Zr162       O169   2.366       .  S
Zr163       O165   2.435       .  S
Zr163       O187   2.441       .  S
Zr163       O189   2.361       .  S
Zr163       O167   2.366       .  S
Zr163       O170   2.350       .  S
Zr164       O190   2.432       .  S
Zr164       O191   2.431       .  S
Zr164       O166   2.457       .  S
Zr164       O167   2.309       .  S
Zr164       O168   2.349       .  S
O165        H202   0.990       .  S
O166        H197   0.989       .  S
O166        H211   0.989       .  S
O168        H194   0.964       .  S
O169       Zr179   2.403       .  S
O170       Zr179   2.400       .  S
O170        H195   0.963       .  S
C171       C1311   1.479       .  S
C172       C1269   1.472       .  S
C173       C1277   1.474       .  S
O174        H210   0.991       .  S
O175        C177   1.252       .  A
O176        C177   1.299       .  A
C177       C1260   1.477       .  S
O178       Zr179   2.428       .  S
O178        H207   0.990       .  S
Zr179       O182   2.435       .  S
Zr179       O183   2.439       .  S
Zr179       O184   2.329       .  S
O180        C185   1.292       .  A
O181        H198   0.990       .  S
O181        H213   0.988       .  S
O182        H199   0.990       .  S
O183        H203   0.990       .  S
O183        H212   0.985       .  S
O184        C185   1.253       .  A
C185       C1255   1.472       .  S
O186        H205   0.987       .  S
O186        H209   0.980       .  S
O187        H201   0.990       .  S
O187        H208   0.990       .  S
O188        C192   1.289       .  A
O189        C192   1.260       .  A
O190        H200   0.990       .  S
O191        H204   0.990       .  S
C192       C1257   1.437       .  S
Zr215       O216   2.435       .  S
Zr215       O217   2.658       .  S
Zr215       O218   2.652       .  S
Zr215       O221   2.730       .  S
Zr215       O223   2.390       .  S
Zr215       O224   2.398       .  S
Zr215       O225   2.448       .  S
Zr215       O226   2.380       .  S
O216        H272   0.989       .  S
O216        H280   0.984       .  S
O217        C237   1.315       .  A
O218        C239   1.318       .  A
O219       Zr229   2.333       .  S
O219        C238   1.252       .  A
O220       Zr228   2.328       .  S
O220        C239   1.252       .  A
O221        C238   1.343       .  A
O222       Zr230   2.295       .  S
O222        C237   1.250       .  A
O223       Zr228   2.376       .  S
O223       Zr230   2.359       .  S
O224       Zr229   2.389       .  S
O224       Zr230   2.404       .  S
O224        H259   0.963       .  S
O225       Zr228   2.407       .  S
O225       Zr245   2.375       .  S
O225        H262   0.966       .  S
O226       Zr229   2.365       .  S
O226       Zr245   2.340       .  S
Zr227       O252   2.363       .  S
Zr227       O246   2.542       .  S
Zr227       O254   2.583       .  S
Zr227       O242   2.534       .  S
Zr227       O233   2.336       .  S
Zr227       O234   2.418       .  S
Zr227       O235   2.358       .  S
Zr227       O236   2.430       .  S
Zr228       O247   2.434       .  S
Zr228       O240   2.433       .  S
Zr228       O241   2.372       .  S
Zr228       O234   2.382       .  S
Zr228       O235   2.355       .  S
Zr229       O231   2.434       .  S
Zr229       O253   2.441       .  S
Zr229       O255   2.334       .  S
Zr229       O233   2.336       .  S
Zr229       O236   2.398       .  S
Zr230       O256   2.436       .  S
Zr230       O257   2.420       .  S
Zr230       O232   2.437       .  S
Zr230       O233   2.269       .  S
Zr230       O234   2.370       .  S
O231        H268   0.990       .  S
O232        H263   0.990       .  S
O232        H277   0.989       .  S
O234        H260   0.965       .  S
O235       Zr245   2.387       .  S
O236       Zr245   2.370       .  S
O236        H261   0.966       .  S
C237       C1359   1.456       .  S
C238       C1288   1.498       .  S
C239       C1384   1.489       .  S
O240        H276   0.990       .  S
O241        C243   1.261       .  A
O242        C243   1.302       .  A
C243       C1251   1.461       .  S
O244       Zr245   2.430       .  S
O244        H273   0.988       .  S
Zr245       O248   2.429       .  S
Zr245       O249   2.445       .  S
Zr245       O250   2.344       .  S
O246        C251   1.300       .  A
O247        H264   0.989       .  S
O247        H279   0.989       .  S
O248        H265   0.989       .  S
O249        H269   0.990       .  S
O249        H278   0.989       .  S
O250        C251   1.256       .  A
C251       C1326   1.453       .  S
O252        H271   0.987       .  S
O252        H275   0.983       .  S
O253        H267   0.990       .  S
O253        H274   0.987       .  S
O254        C258   1.305       .  A
O255        C258   1.253       .  A
O256        H266   0.990       .  S
O257        H270   0.987       .  S
C258       C1253   1.463       .  S
Zr281       O282   2.392       .  S
Zr281       O283   2.562       .  S
Zr281       O284   2.548       .  S
Zr281       O287   2.609       .  S
Zr281       O289   2.384       .  S
Zr281       O290   2.407   1_455  S
Zr281       O291   2.436       .  S
Zr281       O292   2.347       .  S
O282        H338   0.974       .  S
O282        H346   0.981       .  S
O283        C303   1.301   1_455  A
O284        C305   1.298       .  A
O285       Zr295   2.365       .  S
O285        C304   1.253       .  A
O286       Zr294   2.343       .  S
O286        C305   1.249       .  A
O287        C304   1.313   1_455  A
O288       Zr296   2.318       .  S
O288        C303   1.247       .  A
O289       Zr294   2.381       .  S
O289       Zr296   2.374   1_455  S
O290       Zr295   2.371       .  S
O290       Zr296   2.376       .  S
O290        H325   0.966       .  S
O291       Zr294   2.391       .  S
O291       Zr311   2.340       .  S
O291        H328   0.963       .  S
O292       Zr295   2.342   1_455  S
O292       Zr311   2.292       .  S
Zr293       O318   2.408       .  S
Zr293       O312   2.586       .  S
Zr293       O320   2.598       .  S
Zr293       O308   2.616       .  S
Zr293       O299   2.376       .  S
Zr293       O300   2.430       .  S
Zr293       O301   2.376   1_655  S
Zr293       O302   2.413       .  S
Zr294       O313   2.436       .  S
Zr294       O306   2.432       .  S
Zr294       O307   2.334       .  S
Zr294       O300   2.395   1_455  S
Zr294       O301   2.375       .  S
Zr295       O297   2.434       .  S
Zr295       O319   2.441       .  S
Zr295       O321   2.346       .  S
Zr295       O299   2.371       .  S
Zr295       O302   2.377       .  S
Zr296       O322   2.433       .  S
Zr296       O323   2.423       .  S
Zr296       O298   2.440       .  S
Zr296       O299   2.294       .  S
Zr296       O300   2.354       .  S
O297        H334   0.990       .  S
O298        H329   0.990       .  S
O298        H343   0.989   1_655  S
O300        H326   0.965       .  S
O301       Zr311   2.387       .  S
O302       Zr311   2.401   1_655  S
O302        H327   0.966       .  S
C303       C1323   1.453       .  S
C304       C1247   1.468       .  S
C305       C1250   1.475       .  S
O306        H342   0.991       .  S
O307        C309   1.248       .  A
O308        C309   1.313   1_655  A
C309       C1298   1.500       .  S
O310       Zr311   2.428       .  S
O310        H339   0.989       .  S
Zr311       O314   2.438       .  S
Zr311       O315   2.433       .  S
Zr311       O316   2.301       .  S
O312        C317   1.306   1_655  A
O313        H330   0.989       .  S
O313        H345   0.988       .  S
O314        H331   0.990       .  S
O315        H335   0.990       .  S
O315        H344   0.990       .  S
O316        C317   1.242       .  A
C317       C1392   1.447       .  S
O318        H337   0.987       .  S
O318        H341   0.989       .  S
O319        H333   0.990       .  S
O319        H340   0.989       .  S
O320        C324   1.310       .  A
O321        C324   1.251       .  A
O322        H332   0.990       .  S
O323        H336   0.989       .  S
C324       C1399   1.468       .  S
C347       C1249   1.499       .  S
C347       C1254   1.495       .  S
C347       C1258   1.462       .  S
C347       C1243   1.606       .  S
Zr348       O349   2.404       .  S
Zr348       O350   2.608       .  S
Zr348       O351   2.619       .  S
Zr348       O354   2.650       .  S
Zr348       O356   2.383       .  S
Zr348       O357   2.396       .  S
Zr348       O358   2.423       .  S
Zr348       O359   2.380       .  S
O349        H405   0.989       .  S
O349        H413   0.987       .  S
O350        C370   1.311       .  A
O351        C372   1.306       .  A
O352       Zr362   2.324       .  S
O352        C371   1.247       .  A
O353       Zr361   2.321       .  S
O353        C372   1.241       .  A
O354        C371   1.324       .  A
O355       Zr363   2.308       .  S
O355        C370   1.236       .  A
O356       Zr361   2.399       .  S
O356       Zr363   2.388       .  S
O357       Zr362   2.368       .  S
O357       Zr363   2.410       .  S
O357        H392   0.961       .  S
O358       Zr361   2.414       .  S
O358       Zr378   2.371       .  S
O358        H395   0.967       .  S
O359       Zr362   2.367       .  S
O359       Zr378   2.311       .  S
Zr360       O385   2.313       .  S
Zr360       O379   2.561       .  S
Zr360       O387   2.577       .  S
Zr360       O375   2.534       .  S
Zr360       O366   2.329       .  S
Zr360       O367   2.406       .  S
Zr360       O368   2.356       .  S
Zr360       O369   2.418       .  S
Zr361       O380   2.435       .  S
Zr361       O373   2.437       .  S
Zr361       O374   2.348       .  S
Zr361       O367   2.372       .  S
Zr361       O368   2.352       .  S
Zr362       O364   2.433       .  S
Zr362       O386   2.439       .  S
Zr362       O388   2.343       .  S
Zr362       O366   2.335       .  S
Zr362       O369   2.368       .  S
Zr363       O389   2.436       .  S
Zr363       O390   2.433       .  S
Zr363       O365   2.442       .  S
Zr363       O366   2.272       .  S
Zr363       O367   2.355       .  S
O364        H401   0.990       .  S
O365        H396   0.989       .  S
O365        H410   0.989       .  S
O367        H393   0.966       .  S
O368       Zr378   2.396       .  S
O369       Zr378   2.410       .  S
O369        H394   0.967       .  S
C370       C1267   1.462       .  S
C371       C1242   1.476       .  S
C372       C1275   1.487       .  S
O373        H409   0.992       .  S
O374        C376   1.250       .  A
O375        C376   1.291       .  A
C376       C1238   1.448       .  S
O377       Zr378   2.431       .  S
O377        H406   0.990       .  S
Zr378       O381   2.440       .  S
Zr378       O382   2.438       .  S
Zr378       O383   2.317       .  S
O379        C384   1.297       .  A
O380        H397   0.989       .  S
O380        H412   0.986       .  S
O381        H398   0.990       .  S
O382        H402   0.990       .  S
O382        H411   0.988       .  S
O383        C384   1.246       .  A
C384       C1239   1.445       .  S
O385        H404   0.980       .  S
O385        H408   0.985       .  S
O386        H400   0.990       .  S
O386        H407   0.989       .  S
O387        C391   1.303       .  A
O388        C391   1.257       .  A
O389        H399   0.990       .  S
O390        H403   0.990       .  S
C391       C1236   1.470       .  S
C414       C1223   1.611       .  S
C414       C1227   1.603       .  S
C414       C1231   1.609       .  S
C414       C1244   1.617       .  S
C415       C1219   1.465       .  S
C415       C1222   1.509       .  S
C415       C1376   1.475       .  S
C415       C1232   1.596       .  S
C416       C1218   1.460       .  S
C416       C1240   1.484   1_556  S
C416       C1346   1.491       .  S
C416       C1228   1.594       .  S
C417       C1208   1.494       .  S
C417       C1209   1.485       .  S
C417       C1216   1.485       .  S
C417       C1211   1.614       .  S
Zr418       O419   2.393       .  S
Zr418       O420   2.686       .  S
Zr418       O421   2.637       .  S
Zr418       O424   2.590       .  S
Zr418       O426   2.367       .  S
Zr418       O427   2.409       .  S
Zr418       O428   2.431       .  S
Zr418       O429   2.325       .  S
O419        H475   0.990       .  S
O419        H483   0.987       .  S
O420        C440   1.323       .  A
O421        C442   1.316       .  A
O422       Zr432   2.370       .  S
O422        C441   1.263       .  A
O423       Zr431   2.349       .  S
O423        C442   1.254       .  A
O424        C441   1.307       .  A
O425       Zr433   2.301       .  S
O425        C440   1.247       .  A
O426       Zr431   2.383       .  S
O426       Zr433   2.399       .  S
O427       Zr432   2.389       .  S
O427       Zr433   2.401       .  S
O427        H462   0.965       .  S
O428       Zr431   2.344       .  S
O428       Zr448   2.342       .  S
O428        H465   0.964       .  S
O429       Zr432   2.327       .  S
O429       Zr448   2.293       .  S
Zr430       O455   2.384       .  S
Zr430       O449   2.624       .  S
Zr430       O457   2.547       .  S
Zr430       O445   2.572       .  S
Zr430       O436   2.397       .  S
Zr430       O437   2.442       .  S
Zr430       O438   2.387       .  S
Zr430       O439   2.398       .  S
Zr431       O450   2.438       .  S
Zr431       O443   2.436       .  S
Zr431       O444   2.315       .  S
Zr431       O437   2.382       .  S
Zr431       O438   2.411       .  S
Zr432       O434   2.435       .  S
Zr432       O456   2.439       .  S
Zr432       O458   2.373       .  S
Zr432       O436   2.374       .  S
Zr432       O439   2.391       .  S
Zr433       O459   2.433       .  S
Zr433       O460   2.418       .  S
Zr433       O435   2.439       .  S
Zr433       O436   2.320       .  S
Zr433       O437   2.332       .  S
O434        H471   0.990       .  S
O435        H466   0.989       .  S
O435        H480   0.988       .  S
O437        H463   0.964       .  S
O438       Zr448   2.366       .  S
O439       Zr448   2.394       .  S
O439        H464   0.964       .  S
C440       C1201   1.478       .  S
C441       C1200   1.470       .  S
C442       C1320   1.484       .  S
O443        H479   0.991       .  S
O444        C446   1.244       .  A
O445        C446   1.302       .  A
C446       C1204   1.481       .  S
O447       Zr448   2.426       .  S
O447        H476   0.988       .  S
Zr448       O451   2.434       .  S
Zr448       O452   2.431       .  S
Zr448       O453   2.298       .  S
O449        C454   1.326       .  A
O450        H467   0.990       .  S
O450        H482   0.989       .  S
O451        H468   0.990       .  S
O452        H472   0.990       .  S
O452        H481   0.990       .  S
O453        C454   1.254       .  A
C454       C1205   1.465       .  S
O455        H474   0.988       .  S
O455        H478   0.989       .  S
O456        H470   0.990       .  S
O456        H477   0.989       .  S
O457        C461   1.301       .  A
O458        C461   1.259       .  A
O459        H469   0.990       .  S
O460        H473   0.990       .  S
C461       C1210   1.458       .  S
C484       C1191   1.498       .  S
C484       C1197   1.495       .  S
C484       C1203   1.494       .  S
C484       C1194   1.641       .  S
Zr485       O486   2.412       .  S
Zr485       O487   2.636       .  S
Zr485       O488   2.521       .  S
Zr485       O491   2.563       .  S
Zr485       O493   2.364       .  S
Zr485       O494   2.400       .  S
Zr485       O495   2.447       .  S
Zr485       O496   2.364       .  S
O486        H542   0.979       .  S
O486        H550   0.987       .  S
O487        C507   1.318       .  A
O488        C509   1.290       .  A
O489       Zr499   2.361       .  S
O489        C508   1.261   1_545  A
O490       Zr498   2.334       .  S
O490        C509   1.249       .  A
O491        C508   1.301       .  A
O492       Zr500   2.310       .  S
O492        C507   1.245   1_545  A
O493       Zr498   2.386       .  S
O493       Zr500   2.390   1_565  S
O494       Zr499   2.370   1_565  S
O494       Zr500   2.408   1_565  S
O494        H529   0.962   1_565  S
O495       Zr498   2.398       .  S
O495       Zr515   2.358       .  S
O495        H532   0.966       .  S
O496       Zr499   2.365   1_565  S
O496       Zr515   2.318       .  S
Zr497       O522   2.378       .  S
Zr497       O516   2.655   1_545  S
Zr497       O524   2.582       .  S
Zr497       O512   2.603       .  S
Zr497       O503   2.396       .  S
Zr497       O504   2.435   1_545  S
Zr497       O505   2.379   1_545  S
Zr497       O506   2.371       .  S
Zr498       O517   2.436       .  S
Zr498       O510   2.434       .  S
Zr498       O511   2.347       .  S
Zr498       O504   2.401       .  S
Zr498       O505   2.385       .  S
Zr499       O501   2.434       .  S
Zr499       O523   2.432       .  S
Zr499       O525   2.342       .  S
Zr499       O503   2.368       .  S
Zr499       O506   2.359       .  S
Zr500       O526   2.436       .  S
Zr500       O527   2.444       .  S
Zr500       O502   2.476   1_545  S
Zr500       O503   2.350       .  S
Zr500       O504   2.329   1_545  S
O501        H538   0.990       .  S
O502        H533   0.988       .  S
O502        H547   0.989       .  S
O504        H530   0.966       .  S
O505       Zr515   2.386       .  S
O506       Zr515   2.401   1_545  S
O506        H531   0.961       .  S
C507       C1389   1.483       .  S
C508       C1409   1.458       .  S
C509       C1397   1.456       .  S
O510        H546   0.991       .  S
O511        C513   1.252       .  A
O512        C513   1.309   1_545  A
C513       C1187   1.500       .  S
O514       Zr515   2.433       .  S
O514        H543   0.991       .  S
Zr515       O518   2.446       .  S
Zr515       O519   2.436       .  S
Zr515       O520   2.308       .  S
O516        C521   1.323       .  A
O517        H534   0.990       .  S
O517        H549   0.987       .  S
O518        H535   0.989       .  S
O519        H539   0.990       .  S
O519        H548   0.989       .  S
O520        C521   1.241       .  A
C521       C1221   1.467       .  S
O522        H541   0.988       .  S
O522        H545   0.981       .  S
O523        H537   0.989       .  S
O523        H544   0.988       .  S
O524        C528   1.309       .  A
O525        C528   1.255       .  A
O526        H536   0.991       .  S
O527        H540   0.989       .  S
C528       C1189   1.457       .  S
C551       C1185   1.526       .  S
C551       C1190   1.490       .  S
C551       C1370   1.466       .  S
C551       C1339   1.642       .  S
Zr552       O553   2.391       .  S
Zr552       O554   2.563       .  S
Zr552       O555   2.515       .  S
Zr552       O558   2.552       .  S
Zr552       O560   2.374       .  S
Zr552       O561   2.419       .  S
Zr552       O562   2.436       .  S
Zr552       O563   2.355       .  S
O553        H609   0.987       .  S
O553        H617   0.987       .  S
O554        C574   1.302       .  A
O555        C576   1.295       .  A
O556       Zr566   2.362       .  S
O556        C575   1.261       .  A
O557       Zr565   2.372       .  S
O557        C576   1.258       .  A
O558        C575   1.301       .  A
O559       Zr567   2.320       .  S
O559        C574   1.252       .  A
O560       Zr565   2.390       .  S
O560       Zr567   2.403       .  S
O561       Zr566   2.379       .  S
O561       Zr567   2.368       .  S
O561        H596   0.965       .  S
O562       Zr565   2.376       .  S
O562       Zr582   2.360       .  S
O562        H599   0.964       .  S
O563       Zr566   2.341       .  S
O563       Zr582   2.305       .  S
Zr564       O589   2.425       .  S
Zr564       O583   2.679       .  S
Zr564       O591   2.654       .  S
Zr564       O579   2.626       .  S
Zr564       O570   2.372       .  S
Zr564       O571   2.435       .  S
Zr564       O572   2.400       .  S
Zr564       O573   2.384       .  S
Zr565       O584   2.436       .  S
Zr565       O577   2.433       .  S
Zr565       O578   2.352       .  S
Zr565       O571   2.394       .  S
Zr565       O572   2.399       .  S
Zr566       O568   2.432       .  S
Zr566       O590   2.439       .  S
Zr566       O592   2.347       .  S
Zr566       O570   2.348       .  S
Zr566       O573   2.374       .  S
Zr567       O593   2.432       .  S
Zr567       O594   2.432       .  S
Zr567       O569   2.438       .  S
Zr567       O570   2.312       .  S
Zr567       O571   2.309       .  S
O568        H605   0.990       .  S
O569        H600   0.990       .  S
O569        H614   0.990       .  S
O571        H597   0.965       .  S
O572       Zr582   2.378       .  S
O573       Zr582   2.408       .  S
O573        H598   0.962       .  S
C574       C1184   1.454       .  S
C575       C1198   1.462       .  S
C576       C1215   1.459       .  S
O577        H613   0.991       .  S
O578        C580   1.255       .  A
O579        C580   1.313       .  A
C580       C1186   1.506       .  S
O581       Zr582   2.430       .  S
O581        H610   0.990       .  S
Zr582       O585   2.446       .  S
Zr582       O586   2.431       .  S
Zr582       O587   2.306       .  S
O583        C588   1.327       .  A
O584        H601   0.990       .  S
O584        H616   0.987       .  S
O585        H602   0.989       .  S
O586        H606   0.990       .  S
O586        H615   0.989       .  S
O587        C588   1.242       .  A
C588       C1180   1.478       .  S
O589        H608   0.979       .  S
O589        H612   0.979       .  S
O590        H604   0.990       .  S
O590        H611   0.989       .  S
O591        C595   1.328       .  A
O592        C595   1.258       .  A
O593        H603   0.990       .  S
O594        H607   0.990       .  S
C595       C1181   1.477       .  S
C618       C1164   1.723       .  S
C618       C1167   1.693       .  S
C618       C1171   1.742       .  S
C618       C1176   1.783       .  S
C619       C1161   1.464       .  S
C619       C1182   1.502       .  S
C619       C1188   1.525       .  S
C619       C1172   1.657       .  S
C620       C1160   1.491       .  S
C620       C1248   1.493       .  S
C620       C1259   1.501   1_655  S
C620       C1168   1.653       .  S
C621       C1199   1.528       .  S
C621       C1235   1.532       .  S
C621       C1350   1.493       .  S
C621       C1175   1.706       .  S
C622       C1153   1.574       .  S
C622       C1252   1.542       .  S
C622       C1256   1.549       .  S
C622       C1155   1.798       .  S
Zr623       O624   2.458       .  S
Zr623       O625   2.488       .  S
Zr623       O626   2.457       .  S
Zr623       O629   2.331       .  S
Zr623       O631   2.408       .  S
Zr623       O632   2.374       .  S
Zr623       O633   2.372   1_556  S
Zr623       O634   2.404   1_556  S
O624        H680   0.989       .  S
O624        H688   0.989       .  S
O625        C645   1.287       .  A
O626        C647   1.281       .  A
O627       Zr637   2.492       .  S
O627        C646   1.294       .  A
O628       Zr636   2.462   1_554  S
O628        C647   1.291   1_554  A
O629        C646   1.265       .  A
O630       Zr638   2.414       .  S
O630        C645   1.278       .  A
O631       Zr636   2.448       .  S
O631       Zr638   2.388       .  S
O632       Zr637   2.297       .  S
O632       Zr638   2.366       .  S
O632        H667   0.961       .  S
O633       Zr636   2.405   1_554  S
O633       Zr653   2.274       .  S
O633        H670   0.954       .  S
O634       Zr637   2.386   1_554  S
O634       Zr653   2.398       .  S
Zr635       O660   2.414       .  S
Zr635       O654   2.455       .  S
Zr635       O662   2.438   1_554  S
Zr635       O650   2.321       .  S
Zr635       O641   2.295   1_554  S
Zr635       O642   2.421   1_554  S
Zr635       O643   2.326       .  S
Zr635       O644   2.365       .  S
Zr636       O655   2.432   1_556  S
Zr636       O648   2.379       .  S
Zr636       O649   2.543   1_556  S
Zr636       O642   2.385       .  S
Zr636       O643   2.313   1_556  S
Zr637       O639   2.393   1_556  S
Zr637       O661   2.405       .  S
Zr637       O663   2.496       .  S
Zr637       O641   2.289       .  S
Zr637       O644   2.385   1_556  S
Zr638       O664   2.435       .  S
Zr638       O665   2.436       .  S
Zr638       O640   2.346       .  S
Zr638       O641   2.299       .  S
Zr638       O642   2.391       .  S
O639        H676   0.985       .  S
O640        H671   0.976       .  S
O640        H685   0.967       .  S
O642        H668   0.965       .  S
O643       Zr653   2.323       .  S
O644       Zr653   2.341       .  S
O644        H669   0.923       .  S
C645       C1361   1.449       .  S
C646       C1318   1.418       .  S
C647       C1352   1.441   1_556  S
O648        H684   0.985       .  S
O649        C651   1.306       .  A
O650        C651   1.265       .  A
C651       C1285   1.435       .  S
O652       Zr653   2.433       .  S
O652        H681   0.989       .  S
Zr653       O656   2.430       .  S
Zr653       O657   2.352       .  S
Zr653       O658   2.435       .  S
O654        C659   1.283       .  A
O655        H672   0.986       .  S
O655        H687   0.990       .  S
O656        H673   0.986       .  S
O657        H677   0.982       .  S
O657        H686   0.976       .  S
O658        C659   1.281       .  A
C659       C1152   1.426       .  S
O660        H679   0.990       .  S
O660        H683   0.987       .  S
O661        H675   0.987       .  S
O661        H682   0.990       .  S
O662        C666   1.288       .  A
O663        C666   1.297       .  A
O664        H674   0.990       .  S
O665        H678   0.989       .  S
C666       C1217   1.432       .  S
C689       C1151   1.459       .  S
C689       C1202   1.507       .  S
C689       C1237   1.480       .  S
C689       C1147   1.598       .  S
C690       C1139   1.691       .  S
C690       C1143   1.671       .  S
C690       C1148   1.677       .  S
C690       C1156   1.773       .  S
C691       C1138   1.467       .  S
C691       C1179   1.519       .  S
C691       C1367   1.473       .  S
C691       C1140   1.605       .  S
Zr692       O693   2.397       .  S
Zr692       O694   2.504       .  S
Zr692       O695   2.463   1_545  S
Zr692       O698   2.336       .  S
Zr692       O700   2.397       .  S
Zr692       O701   2.347       .  S
Zr692       O702   2.354   1_545  S
Zr692       O703   2.430   1_545  S
O693        H749   0.988       .  S
O693        H757   0.989       .  S
O694        C714   1.295       .  A
O695        C716   1.291       .  A
O696       Zr706   2.536   1_545  S
O696        C715   1.301       .  A
O697       Zr705   2.489       .  S
O697        C716   1.296       .  A
O698        C715   1.266       .  A
O699       Zr707   2.418       .  S
O699        C714   1.281       .  A
O700       Zr705   2.428   1_545  S
O700       Zr707   2.379       .  S
O701       Zr706   2.262   1_545  S
O701       Zr707   2.341       .  S
O701        H736   0.957       .  S
O702       Zr705   2.354       .  S
O702       Zr722   2.272       .  S
O702        H739   0.949       .  S
O703       Zr706   2.378       .  S
O703       Zr722   2.399       .  S
Zr704       O729   2.403       .  S
Zr704       O723   2.488       .  S
Zr704       O731   2.447       .  S
Zr704       O719   2.323       .  S
Zr704       O710   2.316       .  S
Zr704       O711   2.432       .  S
Zr704       O712   2.321       .  S
Zr704       O713   2.389       .  S
Zr705       O724   2.430       .  S
Zr705       O717   2.402   1_565  S
Zr705       O718   2.528       .  S
Zr705       O711   2.395       .  S
Zr705       O712   2.327       .  S
Zr706       O708   2.344       .  S
Zr706       O730   2.432   1_565  S
Zr706       O732   2.498   1_565  S
Zr706       O710   2.288       .  S
Zr706       O713   2.417       .  S
Zr707       O733   2.436       .  S
Zr707       O734   2.406       .  S
Zr707       O709   2.353       .  S
Zr707       O710   2.303   1_545  S
Zr707       O711   2.423   1_545  S
O708        H745   0.982       .  S
O709        H740   0.978       .  S
O709        H754   0.987       .  S
O711        H737   0.965       .  S
O712       Zr722   2.344       .  S
O713       Zr722   2.361       .  S
O713        H738   0.957       .  S
C714       C1137   1.434       .  S
C715       C1308   1.438       .  S
C716       C1220   1.439       .  S
O717        H753   0.990       .  S
O718        C720   1.302       .  A
O719        C720   1.263       .  A
C720       C1162   1.430       .  S
O721       Zr722   2.432       .  S
O721        H750   0.990       .  S
Zr722       O725   2.435       .  S
Zr722       O726   2.347       .  S
Zr722       O727   2.428       .  S
O723        C728   1.287       .  A
O724        H741   0.989       .  S
O724        H756   0.990       .  S
O725        H742   0.990       .  S
O726        H746   0.984       .  S
O726        H755   0.987       .  S
O727        C728   1.282       .  A
C728       C1261   1.442       .  S
O729        H748   0.990       .  S
O729        H752   0.988       .  S
O730        H744   0.986       .  S
O730        H751   0.990       .  S
O731        C735   1.287       .  A
O732        C735   1.297   1_545  A
O733        H743   0.990       .  S
O734        H747   0.985       .  S
C735       C1135   1.440   1_565  S
C758       C1134   1.511       .  S
C758       C1136   1.467       .  S
C758       C1241   1.500   1_545  S
C758       C1129   1.639       .  S
C759       C1125   1.487       .  S
C759       C1128   1.522       .  S
C759       C1206   1.496   1_455  S
C759       C1272   1.685       .  S
Zr760       O761   2.407       .  S
Zr760       O762   2.579       .  S
Zr760       O763   2.575       .  S
Zr760       O766   2.616       .  S
Zr760       O768   2.370   1_655  S
Zr760       O769   2.431       .  S
Zr760       O770   2.433       .  S
Zr760       O771   2.326       .  S
O761        H817   0.988       .  S
O761        H825   0.987       .  S
O762        C782   1.301   1_655  A
O763        C784   1.300   1_655  A
O764       Zr774   2.337       .  S
O764        C783   1.253       .  A
O765       Zr773   2.347       .  S
O765        C784   1.247       .  A
O766        C783   1.313       .  A
O767       Zr775   2.326   1_655  S
O767        C782   1.249   1_655  A
O768       Zr773   2.360       .  S
O768       Zr775   2.388       .  S
O769       Zr774   2.393       .  S
O769       Zr775   2.390   1_655  S
O769        H804   0.966       .  S
O770       Zr773   2.402   1_655  S
O770       Zr790   2.372       .  S
O770        H807   0.968       .  S
O771       Zr774   2.344       .  S
O771       Zr790   2.275       .  S
Zr772       O797   2.412       .  S
Zr772       O791   2.544       .  S
Zr772       O799   2.642       .  S
Zr772       O787   2.545       .  S
Zr772       O778   2.366       .  S
Zr772       O779   2.430       .  S
Zr772       O780   2.388       .  S
Zr772       O781   2.427   1_455  S
Zr773       O792   2.435       .  S
Zr773       O785   2.435       .  S
Zr773       O786   2.331       .  S
Zr773       O779   2.404       .  S
Zr773       O780   2.365       .  S
Zr774       O776   2.436       .  S
Zr774       O798   2.440       .  S
Zr774       O800   2.353       .  S
Zr774       O778   2.380   1_655  S
Zr774       O781   2.388       .  S
Zr775       O801   2.436       .  S
Zr775       O802   2.425       .  S
Zr775       O777   2.438       .  S
Zr775       O778   2.314       .  S
Zr775       O779   2.378       .  S
O776        H813   0.990       .  S
O777        H808   0.990       .  S
O777        H822   0.988       .  S
O779        H805   0.966       .  S
O780       Zr790   2.375   1_455  S
O781       Zr790   2.421       .  S
O781        H806   0.966       .  S
C782       C1123   1.464       .  S
C783       C1207   1.469       .  S
C784       C1126   1.461       .  S
O785        H821   0.989       .  S
O786        C788   1.245       .  A
O787        C788   1.291       .  A
C788       C1154   1.461       .  S
O789       Zr790   2.433       .  S
O789        H818   0.989       .  S
Zr790       O793   2.435       .  S
Zr790       O794   2.448       .  S
Zr790       O795   2.314   1_655  S
O791        C796   1.294       .  A
O792        H809   0.989       .  S
O792        H824   0.990       .  S
O793        H810   0.990       .  S
O794        H814   0.990       .  S
O794        H823   0.988       .  S
O795        C796   1.249       .  A
C796       C1159   1.470   1_455  S
O797        H816   0.987       .  S
O797        H820   0.989       .  S
O798        H812   0.990       .  S
O798        H819   0.989       .  S
O799        C803   1.320   1_455  A
O800        C803   1.250       .  A
O801        H811   0.990       .  S
O802        H815   0.990       .  S
C803       C1321   1.476       .  S
C826       C1121   1.493   1_455  S
C826       C1124   1.490       .  S
C826       C1183   1.493   1_455  S
C826       C1304   1.629       .  S
C827       C1115   1.492       .  S
C827       C1117   1.457       .  S
C827       C1120   1.502   1_556  S
C827       C1224   1.608       .  S
Zr828       O829   2.439       .  S
Zr828       O830   2.466       .  S
Zr828       O831   2.449   1_545  S
Zr828       O834   2.349       .  S
Zr828       O836   2.388   1_655  S
Zr828       O837   2.377   1_554  S
Zr828       O838   2.377   1_545  S
Zr828       O839   2.421   1_544  S
O829        H885   0.990       .  S
O829        H893   0.991       .  S
O830        C850   1.285       .  A
O831        C852   1.283       .  A
O832       Zr842   2.495   1_545  S
O832        C851   1.289       .  A
O833       Zr841   2.522       .  S
O833        C852   1.302   1_455  A
O834        C851   1.268   1_554  A
O835       Zr843   2.437   1_655  S
O835        C850   1.284   1_556  A
O836       Zr841   2.418   1_545  S
O836       Zr843   2.376   1_554  S
O837       Zr842   2.312   1_545  S
O837       Zr843   2.354   1_655  S
O837        H872   0.961       .  S
O838       Zr841   2.345   1_655  S
O838       Zr858   2.280       .  S
O838        H875   0.949       .  S
O839       Zr842   2.393       .  S
O839       Zr858   2.392   1_556  S
Zr840       O865   2.422       .  S
Zr840       O859   2.526       .  S
Zr840       O867   2.465       .  S
Zr840       O855   2.314       .  S
Zr840       O846   2.324       .  S
Zr840       O847   2.422       .  S
Zr840       O848   2.299   1_556  S
Zr840       O849   2.377   1_455  S
Zr841       O860   2.434       .  S
Zr841       O853   2.394   1_565  S
Zr841       O854   2.526       .  S
Zr841       O847   2.399   1_554  S
Zr841       O848   2.317       .  S
Zr842       O844   2.389       .  S
Zr842       O866   2.428   1_565  S
Zr842       O868   2.474   1_565  S
Zr842       O846   2.314   1_655  S
Zr842       O849   2.407       .  S
Zr843       O869   2.425       .  S
Zr843       O870   2.431       .  S
Zr843       O845   2.375   1_556  S
Zr843       O846   2.315   1_545  S
Zr843       O847   2.389   1_545  S
O844        H881   0.988       .  S
O845        H876   0.984       .  S
O845        H890   0.977       .  S
O847        H873   0.965       .  S
O848       Zr858   2.308   1_455  S
O849       Zr858   2.393   1_556  S
O849        H874   0.960       .  S
C850       C1111   1.456   1_554  S
C851       C1407   1.429   1_556  S
C852       C1114   1.451       .  S
O853        H889   0.985   1_545  S
O854        C856   1.303   1_554  A
O855        C856   1.265       .  A
C856       C1118   1.418       .  S
O857       Zr858   2.445       .  S
O857        H886   0.990       .  S
Zr858       O861   2.432       .  S
Zr858       O862   2.357   1_554  S
Zr858       O863   2.445   1_655  S
O859        C864   1.296       .  A
O860        H877   0.988       .  S
O860        H892   0.990       .  S
O861        H878   0.992       .  S
O862        H882   0.969       .  S
O862        H891   0.985       .  S
O863        C864   1.283   1_554  A
C864       C1296   1.451   1_556  S
O865        H884   0.990       .  S
O865        H888   0.988       .  S
O866        H880   0.983       .  S
O866        H887   0.990       .  S
O867        C871   1.292   1_565  A
O868        C871   1.292   1_655  A
O869        H879   0.990       .  S
O870        H883   0.990       .  S
C871       C1388   1.441       .  S
C894       C1108   1.509       .  S
C894       C1109   1.491       .  S
C894       C1113   1.471       .  S
C894       C1163   1.637       .  S
C895       C1104   1.509   1_556  S
C895       C1106   1.507       .  S
C895       C1112   1.481       .  S
C895       C1328   1.640       .  S
Zr896       O897   2.410       .  S
Zr896       O898   2.664       .  S
Zr896       O899   2.561       .  S
Zr896       O902   2.562       .  S
Zr896       O904   2.360   1_556  S
Zr896       O905   2.421       .  S
Zr896       O906   2.429       .  S
Zr896       O907   2.343       .  S
O897        H953   0.983       .  S
O897        H961   0.986       .  S
O898        C918   1.325       .  A
O899        C920   1.300   1_556  A
O900       Zr910   2.366       .  S
O900        C919   1.265       .  A
O901       Zr909   2.348       .  S
O901        C920   1.253       .  A
O902        C919   1.301       .  A
O903       Zr911   2.303   1_556  S
O903        C918   1.239       .  A
O904       Zr909   2.385       .  S
O904       Zr911   2.412       .  S
O905       Zr910   2.376       .  S
O905       Zr911   2.399   1_556  S
O905        H940   0.960       .  S
O906       Zr909   2.385   1_556  S
O906       Zr926   2.353       .  S
O906        H943   0.964       .  S
O907       Zr910   2.333       .  S
O907       Zr926   2.289       .  S
Zr908       O933   2.414       .  S
Zr908       O927   2.598       .  S
Zr908       O935   2.575       .  S
Zr908       O923   2.579       .  S
Zr908       O914   2.390   1_554  S
Zr908       O915   2.429       .  S
Zr908       O916   2.396       .  S
Zr908       O917   2.413   1_554  S
Zr909       O928   2.436       .  S
Zr909       O921   2.434       .  S
Zr909       O922   2.335       .  S
Zr909       O915   2.405       .  S
Zr909       O916   2.382       .  S
Zr910       O912   2.434       .  S
Zr910       O934   2.436       .  S
Zr910       O936   2.370       .  S
Zr910       O914   2.376       .  S
Zr910       O917   2.371       .  S
Zr911       O937   2.436       .  S
Zr911       O938   2.426       .  S
Zr911       O913   2.462       .  S
Zr911       O914   2.343   1_554  S
Zr911       O915   2.326       .  S
O912        H949   0.990       .  S
O913        H944   0.989       .  S
O913        H958   0.987       .  S
O915        H941   0.965       .  S
O916       Zr926   2.394   1_554  S
O917       Zr926   2.400       .  S
O917        H942   0.961       .  S
C918       C1354   1.491   1_556  S
C919       C1377   1.462       .  S
C920       C1294   1.474       .  S
O921        H957   0.989       .  S
O922        C924   1.248       .  A
O923        C924   1.299       .  A
C924       C1101   1.483       .  S
O925       Zr926   2.422       .  S
O925        H954   0.988       .  S
Zr926       O929   2.439       .  S
Zr926       O930   2.457       .  S
Zr926       O931   2.301   1_556  S
O927        C932   1.294   1_554  A
O928        H945   0.990       .  S
O928        H960   0.988       .  S
O929        H946   0.989       .  S
O930        H950   0.990       .  S
O930        H959   0.984       .  S
O931        C932   1.245   1_554  A
C932       C1105   1.475       .  S
O933        H952   0.989       .  S
O933        H956   0.988       .  S
O934        H948   0.990       .  S
O934        H955   0.989       .  S
O935        C939   1.310   1_554  A
O936        C939   1.261       .  A
O937        H947   0.990   1_554  S
O938        H951   0.989       .  S
C939       C1116   1.461       .  S
Zr962       O963   2.443       .  S
Zr962       O964   2.592       .  S
Zr962       O965   2.537       .  S
Zr962       O968   2.612       .  S
Zr962       O970   2.393       .  S
Zr962       O971   2.442       .  S
Zr962       O972   2.436       .  S
Zr962       O973   2.317       .  S
O963       H1019   0.987       .  S
O963       H1027   0.985       .  S
O964        C984   1.301       .  A
O965        C986   1.296       .  A
O966       Zr976   2.353       .  S
O966        C985   1.257   1_545  A
O967       Zr975   2.346       .  S
O967        C986   1.252       .  A
O968        C985   1.311       .  A
O969       Zr977   2.334   1_565  S
O969        C984   1.249       .  A
O970       Zr975   2.387       .  S
O970       Zr977   2.385   1_565  S
O971       Zr976   2.396   1_565  S
O971       Zr977   2.378   1_565  S
O971       H1006   0.960   1_565  S
O972       Zr975   2.407       .  S
O972       Zr992   2.387       .  S
O972       H1009   0.964       .  S
O973       Zr976   2.344   1_565  S
O973       Zr992   2.293       .  S
Zr974       O999   2.422       .  S
Zr974       O993   2.608   1_545  S
Zr974      O1001   2.531       .  S
Zr974       O989   2.567   1_545  S
Zr974       O980   2.403       .  S
Zr974       O981   2.436   1_545  S
Zr974       O982   2.390   1_545  S
Zr974       O983   2.403       .  S
Zr975       O994   2.434       .  S
Zr975       O987   2.437       .  S
Zr975       O988   2.388       .  S
Zr975       O981   2.380       .  S
Zr975       O982   2.383       .  S
Zr976       O978   2.434       .  S
Zr976      O1000   2.434       .  S
Zr976      O1002   2.362       .  S
Zr976       O980   2.344       .  S
Zr976       O983   2.382       .  S
Zr977      O1003   2.439       .  S
Zr977      O1004   2.412       .  S
Zr977       O979   2.437       .  S
Zr977       O980   2.322       .  S
Zr977       O981   2.328   1_545  S
O978       H1015   0.990       .  S
O979       H1010   0.990       .  S
O979       H1024   0.990   1_545  S
O981       H1007   0.961       .  S
O982       Zr992   2.386       .  S
O983       Zr992   2.408   1_545  S
O983       H1008   0.965       .  S
C984       C1133   1.480       .  S
C985       C1310   1.464       .  S
C986       C1279   1.468       .  S
O987       H1023   0.991       .  S
O988        C990   1.261       .  A
O989        C990   1.305       .  A
C990       C1119   1.484       .  S
O991       Zr992   2.416       .  S
O991       H1020   0.990       .  S
Zr992       O995   2.440       .  S
Zr992       O996   2.440       .  S
Zr992       O997   2.314       .  S
O993        C998   1.310       .  A
O994       H1011   0.990       .  S
O994       H1026   0.987       .  S
O995       H1012   0.990       .  S
O996       H1016   0.991       .  S
O996       H1025   0.990       .  S
O997        C998   1.237       .  A
C998       C1110   1.461       .  S
O999       H1018   0.987       .  S
O999       H1022   0.987       .  S
O1000      H1014   0.990       .  S
O1000      H1021   0.986       .  S
O1001      C1005   1.295       .  A
O1002      C1005   1.253       .  A
O1003      H1013   0.990       .  S
O1004      H1017   0.990       .  S
C1005      C1100   1.444       .  S
Zr1028     O1029   2.393       .  S
Zr1028     O1030   2.594       .  S
Zr1028     O1031   2.577       .  S
Zr1028     O1034   2.617   1_455  S
Zr1028     O1036   2.393       .  S
Zr1028     O1037   2.394       .  S
Zr1028     O1038   2.424   1_455  S
Zr1028     O1039   2.395   1_455  S
O1029      H1085   0.988       .  S
O1029      H1093   0.987       .  S
O1030      C1050   1.311       .  A
O1031      C1052   1.307       .  A
O1032     Zr1042   2.336   1_455  S
O1032      C1051   1.246   1_455  A
O1033     Zr1041   2.355   1_455  S
O1033      C1052   1.252       .  A
O1034      C1051   1.313       .  A
O1035     Zr1043   2.308       .  S
O1035      C1050   1.233       .  A
O1036     Zr1041   2.370   1_455  S
O1036     Zr1043   2.405       .  S
O1037     Zr1042   2.355   1_455  S
O1037     Zr1043   2.419       .  S
O1037      H1072   0.964       .  S
O1038     Zr1041   2.393       .  S
O1038     Zr1058   2.338       .  S
O1038      H1075   0.963       .  S
O1039     Zr1042   2.407       .  S
O1039     Zr1058   2.347       .  S
Zr1040     O1065   2.375       .  S
Zr1040     O1059   2.494       .  S
Zr1040     O1067   2.579       .  S
Zr1040     O1055   2.608       .  S
Zr1040     O1046   2.363       .  S
Zr1040     O1047   2.403   1_655  S
Zr1040     O1048   2.400       .  S
Zr1040     O1049   2.437       .  S
Zr1041     O1060   2.439       .  S
Zr1041     O1053   2.435   1_655  S
Zr1041     O1054   2.336       .  S
Zr1041     O1047   2.397   1_655  S
Zr1041     O1048   2.372       .  S
Zr1042     O1044   2.434       .  S
Zr1042     O1066   2.442   1_655  S
Zr1042     O1068   2.360       .  S
Zr1042     O1046   2.375       .  S
Zr1042     O1049   2.343       .  S
Zr1043     O1069   2.438       .  S
Zr1043     O1070   2.432       .  S
Zr1043     O1045   2.449       .  S
Zr1043     O1046   2.315   1_455  S
Zr1043     O1047   2.359       .  S
O1044      H1081   0.990       .  S
O1045      H1076   0.989       .  S
O1045      H1090   0.989       .  S
O1047      H1073   0.965       .  S
O1048     Zr1058   2.388       .  S
O1049     Zr1058   2.405       .  S
O1049      H1074   0.966       .  S
C1050      C1097   1.452       .  S
C1051      C1107   1.469       .  S
C1052      C1103   1.484   1_455  S
O1053      H1089   0.990       .  S
O1054      C1056   1.248       .  A
O1055      C1056   1.307       .  A
C1056      C1127   1.496       .  S
O1057     Zr1058   2.427       .  S
O1057      H1086   0.990       .  S
Zr1058     O1061   2.446       .  S
Zr1058     O1062   2.443       .  S
Zr1058     O1063   2.298       .  S
O1059      C1064   1.278       .  A
O1060      H1077   0.989       .  S
O1060      H1092   0.990       .  S
O1061      H1078   0.991       .  S
O1062      H1082   0.990       .  S
O1062      H1091   0.989       .  S
O1063      C1064   1.246       .  A
C1064      C1192   1.474       .  S
O1065      H1084   0.986       .  S
O1065      H1088   0.978       .  S
O1066      H1080   0.990       .  S
O1066      H1087   0.990       .  S
O1067      C1071   1.309       .  A
O1068      C1071   1.255       .  A
O1069      H1079   0.991       .  S
O1070      H1083   0.990       .  S
C1071      C1122   1.463       .  S
C1094      C1098   1.483       .  S
C1094      C1099   1.481       .  S
C1094      C1102   1.497       .  S
C1094      C1144   1.631       .  S
C1095      C1130   1.644       .  S
C1095      C1193   1.650       .  S
C1095      C1356   1.638       .  S
C1095      C1414   1.633       .  S
C1096      C1212   1.662       .  S
C1096      C1264   1.768       .  S
C1096      C1364   1.695       .  S
C1096      C1404   1.666       .  S
C1097      C1098   1.230       .  T
C1099      C1100   1.218       .  T
C1101      C1102   1.242       .  T
C1103      C1104   1.241       .  T
C1105      C1106   1.237   1_455  T
C1107      C1108   1.237   1_545  T
C1109      C1110   1.233   1_655  T
C1111      C1112   1.223       .  T
C1113      C1114   1.220       .  T
C1115      C1116   1.227   1_565  T
C1117      C1118   1.200       .  T
C1119      C1120   1.240       .  T
C1121      C1122   1.228       .  T
C1123      C1124   1.233       .  T
C1125      C1126   1.231       .  T
C1127      C1128   1.250   1_655  T
C1129      C1130   1.419       .  D
C1129      H1131   1.085       .  S
C1130      H1132   1.085       .  S
C1133      C1134   1.241   1_565  T
C1135      C1136   1.211       .  T
C1137      C1138   1.209       .  T
C1139      C1140   1.401       .  D
C1139      H1141   1.082       .  S
C1140      H1142   1.085       .  S
C1143      C1144   1.411       .  D
C1143      H1145   1.085       .  S
C1144      H1146   1.083       .  S
C1147      C1148   1.388       .  D
C1147      H1149   1.086       .  S
C1148      H1150   1.086       .  S
C1151      C1152   1.203       .  T
C1153      C1154   1.224       .  T
C1155      C1156   1.407       .  D
C1155      H1157   0.906       .  S
C1156      H1158   0.937       .  S
C1159      C1160   1.232       .  T
C1161      C1162   1.208       .  T
C1163      C1164   1.412       .  D
C1163      H1165   1.085       .  S
C1164      H1166   1.085       .  S
C1167      C1168   1.419       .  D
C1167      H1169   1.086       .  S
C1168      H1170   1.085       .  S
C1171      C1172   1.430       .  D
C1171      H1173   1.086       .  S
C1172      H1174   1.085       .  S
C1175      C1176   1.415       .  D
C1175      H1177   1.049       .  S
C1176      H1178   0.936       .  S
C1179      C1180   1.242       .  T
C1181      C1182   1.239   1_545  T
C1183      C1184   1.227       .  T
C1185      C1186   1.256       .  T
C1187      C1188   1.253       .  T
C1189      C1190   1.226       .  T
C1191      C1192   1.234       .  T
C1193      C1194   1.414       .  D
C1193      H1195   1.086       .  S
C1194      H1196   1.085       .  S
C1197      C1198   1.230       .  T
C1199      C1200   1.233       .  T
C1201      C1202   1.242       .  T
C1203      C1204   1.238       .  T
C1205      C1206   1.238       .  T
C1207      C1208   1.234       .  T
C1209      C1210   1.225       .  T
C1211      C1212   1.396       .  D
C1211      H1213   1.086       .  S
C1212      H1214   1.086       .  S
C1215      C1216   1.223       .  T
C1217      C1218   1.206       .  T
C1219      C1220   1.212       .  T
C1221      C1222   1.237       .  T
C1223      C1224   1.406       .  D
C1223      H1225   1.085       .  S
C1224      H1226   1.085       .  S
C1227      C1228   1.384       .  D
C1227      H1229   1.086       .  S
C1228      H1230   1.085       .  S
C1231      C1232   1.396       .  D
C1231      H1233   1.085       .  S
C1232      H1234   1.086       .  S
C1235      C1236   1.235       .  T
C1237      C1238   1.221       .  T
C1239      C1240   1.221       .  T
C1241      C1242   1.240       .  T
C1243      C1244   1.399       .  D
C1243      H1245   1.084       .  S
C1244      H1246   1.086       .  S
C1247      C1248   1.234       .  T
C1249      C1250   1.234       .  T
C1251      C1252   1.226       .  T
C1253      C1254   1.231       .  T
C1255      C1256   1.235       .  T
C1257      C1258   1.210       .  T
C1259      C1260   1.237       .  T
C1261      C1262   1.213       .  T
C1263      C1264   1.410       .  D
C1263      H1265   1.085       .  S
C1264      H1266   0.948       .  S
C1267      C1268   1.237       .  T
C1269      C1270   1.236       .  T
C1271      C1272   1.448       .  D
C1271      H1273   1.085       .  S
C1272      H1274   1.084       .  S
C1275      C1276   1.246       .  T
C1277      C1278   1.238       .  T
C1279      C1280   1.232       .  T
C1281      C1282   1.441       .  D
C1281      H1283   1.085       .  S
C1282      H1284   1.085       .  S
C1285      C1286   1.213       .  T
C1287      C1288   1.254       .  T
C1289      C1290   1.429       .  D
C1289      H1291   1.085       .  S
C1290      H1292   1.085       .  S
C1293      C1294   1.237       .  T
C1295      C1296   1.219       .  T
C1297      C1298   1.255       .  T
C1299      C1300   1.449       .  D
C1299      H1301   1.107       .  S
C1300      H1302   1.106       .  S
C1303      C1304   1.398       .  D
C1303      H1305   1.087       .  S
C1304      H1306   1.085       .  S
C1307      C1308   1.212       .  T
C1309      C1310   1.232   1_545  T
C1311      C1312   1.247       .  T
C1313      C1314   1.414       .  D
C1313      H1315   1.085       .  S
C1314      H1316   1.085       .  S
C1317      C1318   1.201       .  T
C1319      C1320   1.243   1_556  T
C1321      C1322   1.237       .  T
C1323      C1324   1.227       .  T
C1325      C1326   1.224       .  T
C1327      C1328   1.422       .  D
C1327      H1329   1.085       .  S
C1328      H1330   1.084       .  S
C1331      C1332   1.419       .  D
C1331      H1333   1.086       .  S
C1332      H1334   1.085       .  S
C1335      C1336   1.419       .  D
C1335      H1337   1.085       .  S
C1336      H1338   1.085       .  S
C1339      C1340   1.422       .  D
C1339      H1341   1.085       .  S
C1340      H1342   1.086       .  S
C1343      C1344   1.246       .  T
C1345      C1346   1.231       .  T
C1347      C1348   1.228   1_655  T
C1349      C1350   1.227       .  T
C1351      C1352   1.213       .  T
C1353      C1354   1.251       .  T
C1355      C1356   1.407       .  D
C1355      H1357   1.085       .  S
C1356      H1358   1.086       .  S
C1359      C1360   1.229       .  T
C1361      C1362   1.219       .  T
C1363      C1364   1.390       .  D
C1363      H1365   1.084       .  S
C1364      H1366   1.086       .  S
C1367      C1368   1.220       .  T
C1369      C1370   1.209       .  T
C1371      C1372   1.220       .  T
C1373      C1374   1.221       .  T
C1375      C1376   1.217   1_545  T
C1377      C1378   1.227       .  T
C1379      C1380   1.391       .  D
C1379      H1381   1.085       .  S
C1380      H1382   1.087       .  S
C1383      C1384   1.246       .  T
C1385      C1386   1.199       .  T
C1387      C1388   1.211       .  T
C1389      C1390   1.245       .  T
C1391      C1392   1.225       .  T
C1393      C1394   1.405       .  D
C1393      H1395   1.085       .  S
C1394      H1396   1.084       .  S
C1397      C1398   1.222       .  T
C1399      C1400   1.234       .  T
C1401      C1402   1.226       .  T
C1403      C1404   1.400       .  D
C1403      H1405   1.085       .  S
C1404      H1406   1.086       .  S
C1407      C1408   1.206       .  T
C1409      C1410   1.226       .  T
C1411      C1412   1.249       .  T
C1413      C1414   1.411       .  D
C1413      H1415   1.085   1_545  S
C1414      H1416   1.085       .  S
