geometry optimzed in LAMMPS
_audit_creation_date              2020-12-01 
_audit_creation_method            'lammps2cif' 
_symmetry_space_group_name_H-M    'P1' 
_symmetry_Int_Tables_number       1 
_symmetry_cell_setting            triclinic 
loop_ 
_symmetry_equiv_pos_as_xyz 
  x,y,z 
_cell_length_a                    29.99496171 
_cell_length_b                    30.3870173212222 
_cell_length_c                    29.773423563876264 
_cell_angle_alpha                 89.91598481474455 
_cell_angle_beta                  90.56771186318225 
_cell_angle_gamma                 90.14164052129877 
loop_ 
_atom_site_label 
_atom_site_type_symbol 
_atom_site_fract_x 
_atom_site_fract_y 
_atom_site_fract_z 
_atom_site_charge 
Fe1        Fe  0.21513107  0.57918506  0.49984306     1.65800
Fe2        Fe  0.10862291  0.61198906  0.50477011     1.73200
Fe3        Fe  0.17709181  0.63420071  0.59144286     1.54400
O4          O  0.21815971  0.58406677  0.61334215    -0.80400
O5          O  0.08257175  0.66600825  0.53852584    -0.78700
O6          O  0.24174651  0.54651272  0.55425347    -0.82900
O7          O  0.25646794  0.63062171  0.50954340    -0.77700
O8          O  0.12171465  0.59571598  0.61473400    -0.79500
O9          O  0.13467511  0.65247586  0.45826256    -0.82200
C10         C  0.25980929  0.66407241  0.53445663     0.98500
C11         C  0.24021343  0.55301449  0.59617007     1.06000
O12         O  0.16726923  0.60824534  0.53288041    -1.11200
O13         O  0.11867595  0.55816892  0.46322974    -0.73700
O14         O  0.17915363  0.52324426  0.48597421    -0.77100
O15         O  0.23273022  0.67174074  0.56691875    -0.77800
C16         C  0.14387858  0.52478706  0.46282063     0.97400
O17         O  0.19293069  0.60947075  0.44137201    -0.75800
O18         O  0.08515899  0.57139606  0.55272605    -0.81000
C19         C  0.09827277  0.69392820  0.56578316     1.00100
C20         C  0.09221510  0.57107000  0.59491700     1.06000
O21         O  0.13720713  0.68966546  0.58204411    -0.76600
C22         C  0.16352632  0.63823063  0.43131540     1.04300
Fe23       Fe  0.17561848  0.54549195  0.25208177     1.65800
Fe24       Fe  0.14706585  0.65190600  0.23456509     1.73200
Fe25       Fe  0.11087612  0.57463649  0.16103518     1.54400
O26         O  0.16061965  0.53413427  0.13861181    -0.80400
O27         O  0.08490681  0.67152748  0.20950991    -0.78700
O28         O  0.20194854  0.51377178  0.19759067    -0.82900
O29         O  0.12158175  0.50522286  0.25220295    -0.77700
O30         O  0.14349297  0.62552733  0.12453838    -0.79500
O31         O  0.11717711  0.63725360  0.29244919    -0.82200
C32         C  0.08673049  0.49902437  0.22891440     0.98500
C33         C  0.19324358  0.51369652  0.15585174     1.06000
O34         O  0.14434978  0.59034520  0.21570056    -1.11200
O35         O  0.20995007  0.64626866  0.26492819    -0.73700
O36         O  0.23532834  0.57838632  0.25803895    -0.77100
O37         O  0.07719701  0.52202115  0.19395446    -0.77800
C38         C  0.24064986  0.61783760  0.26985568     0.97400
O39         O  0.15274926  0.57447200  0.31024046    -0.75800
O40         O  0.17733049  0.66725799  0.17691206    -0.81000
C41         C  0.05265661  0.65280282  0.18940268     1.00100
C42         C  0.17149425  0.65545899  0.13651116     1.06000
O43         O  0.05597462  0.61394771  0.17441449    -0.76600
C44         C  0.12985580  0.60834718  0.32005736     1.04300
Fe45       Fe  0.24547733  0.15080675  0.54575059     1.65800
Fe46       Fe  0.24023443  0.11819467  0.65562513     1.73200
Fe47       Fe  0.15956521  0.09074431  0.58259574     1.54400
O48         O  0.13950100  0.13610087  0.53363488    -0.80400
O49         O  0.23472502  0.04981083  0.66449606    -0.78700
O50         O  0.19095464  0.18886374  0.53211703    -0.82900
O51         O  0.22477694  0.10669495  0.49748098    -0.77700
O52         O  0.12897249  0.13165537  0.63193928    -0.79500
O53         O  0.30238573  0.11208008  0.63227822    -0.82200
C54         C  0.21686488  0.06602397  0.50136426     0.98500
C55         C  0.15265809  0.17419123  0.52182655     1.06000
O56         O  0.21540802  0.11977637  0.59489897    -1.11200
O57         O  0.24760593  0.18636955  0.65441958    -0.73700
O58         O  0.27087377  0.20064138  0.58504663    -0.77100
O59         O  0.19323656  0.05134584  0.53397804    -0.77800
C60         C  0.26558129  0.21165650  0.62551399     0.97400
O61         O  0.30210571  0.11491216  0.55702600    -0.75800
O62         O  0.18061064  0.12523305  0.68578664    -0.81000
C63         C  0.19921038  0.02771032  0.65755170     1.00100
C64         C  0.14404724  0.14050509  0.67155707     1.06000
O65         O  0.16939232  0.04103924  0.63007805    -0.76600
C66         C  0.32165000  0.11121018  0.59479215     1.04300
Fe67       Fe  0.51167517  0.18794481  0.58526864     1.65800
Fe68       Fe  0.51767893  0.08041490  0.61808592     1.73200
Fe69       Fe  0.59727406  0.15242015  0.64839935     1.54400
O70         O  0.61676942  0.19987594  0.60211277    -0.80400
O71         O  0.52508457  0.07000773  0.68745172    -0.78700
O72         O  0.56627789  0.20014311  0.54669091    -0.82900
O73         O  0.53367297  0.23495353  0.62997510    -0.77700
O74         O  0.62991548  0.10495389  0.60818816    -0.79500
O75         O  0.45562980  0.10353405  0.62677420    -0.82200
C76         C  0.53897639  0.23089116  0.67188200     0.98500
C77         C  0.60437055  0.21010678  0.56251327     1.06000
O78         O  0.54206521  0.13971739  0.61707428    -1.11200
O79         O  0.50759065  0.08202940  0.54892977    -0.73700
O80         O  0.48453331  0.15009748  0.53426706    -0.77100
O81         O  0.56206952  0.19901574  0.68795600    -0.77800
C82         C  0.48893008  0.11022272  0.52330655     0.97400
O83         O  0.45567023  0.17740335  0.62241367    -0.75800
O84         O  0.57767754  0.05225648  0.60760511    -0.81000
C85         C  0.55947873  0.07832580  0.71126659     1.00100
C86         C  0.61555582  0.06676232  0.59642653     1.06000
O87         O  0.58829787  0.10634998  0.69891331    -0.76600
C88         C  0.43640595  0.14051198  0.62737423     1.04300
Fe89       Fe  0.59282067  0.49481974  0.20320575     1.65800
Fe90       Fe  0.63305348  0.50111945  0.09836446     1.73200
Fe91       Fe  0.65836164  0.58159070  0.17183624     1.54400
O92         O  0.60450878  0.60765987  0.20581742    -0.80400
O93         O  0.69613780  0.52567215  0.08098398    -0.78700
O94         O  0.56761847  0.55014236  0.23330333    -0.82900
O95         O  0.64556960  0.49404044  0.24602423    -0.77700
O96         O  0.63018885  0.61066847  0.11179008    -0.79500
O97         O  0.66410464  0.44852321  0.12541307    -0.82200
C98         C  0.67848624  0.51876348  0.25475734     0.98500
C99         C  0.57388154  0.59123118  0.22973419     1.06000
O100        O  0.62749921  0.52688543  0.15799803    -1.11200
O101        O  0.56983029  0.47044261  0.10213009    -0.73700
O102        O  0.53577570  0.49084625  0.16450962    -0.77100
O103        O  0.68694603  0.55393798  0.23209704    -0.77800
C104        C  0.53529006  0.47152807  0.12694176     0.97400
O105        O  0.61323450  0.43531279  0.17778577    -0.75800
O106        O  0.60330832  0.55359409  0.07198295    -0.81000
C107        C  0.72647613  0.54300758  0.10492545     1.00100
C108        C  0.60647509  0.59447266  0.07925576     1.06000
O109        O  0.71733573  0.56239730  0.14131047    -0.76600
C110        C  0.64178363  0.42267086  0.14929081     1.04300
Fe111      Fe  0.54947704  0.23586660  0.17618121     1.65800
Fe112      Fe  0.65605122  0.23623062  0.13888732     1.73200
Fe113      Fe  0.58726749  0.15322314  0.10843180     1.54400
O114        O  0.54678084  0.12560396  0.15652931    -0.80400
O115        O  0.67657349  0.21606759  0.07509416    -0.78700
O116        O  0.52415500  0.17841841  0.20219053    -0.82900
O117        O  0.50761522  0.23296699  0.12204727    -0.77700
O118        O  0.64300377  0.12455800  0.14310537    -0.79500
O119        O  0.62838255  0.28990510  0.11074569    -0.82200
C120        C  0.50541074  0.21353050  0.08444470     0.98500
C121        C  0.52513280  0.13851200  0.19020948     1.06000
O122        O  0.59760111  0.20776702  0.14153334    -1.11200
O123        O  0.65022437  0.26296550  0.20306276    -0.73700
O124        O  0.58626396  0.24384024  0.23452674    -0.77100
O125        O  0.53228496  0.18251434  0.07343960    -0.77800
C126        C  0.62444041  0.26146781  0.23670319     0.97400
O127        O  0.56896195  0.29717946  0.15508830    -0.75800
O128        O  0.68375343  0.18257708  0.16683243    -0.81000
C129        C  0.66089647  0.18971679  0.04611121     1.00100
C130        C  0.67569970  0.14158152  0.16571432     1.06000
O131        O  0.62555377  0.16824985  0.05320347    -0.76600
C132        C  0.59839542  0.31254315  0.12908206     1.04300
Fe133      Fe  0.71258604  0.90890259  0.49556002     1.65800
Fe134      Fe  0.60432786  0.87549615  0.49052067     1.73200
Fe135      Fe  0.67545988  0.84864585  0.40912909     1.54400
O136        O  0.72233827  0.89554954  0.38954038    -0.80400
O137        O  0.59536474  0.80729836  0.48353845    -0.78700
O138        O  0.72152597  0.94860768  0.44113975    -0.82900
O139        O  0.75989075  0.86683225  0.47072074    -0.77700
O140        O  0.62632123  0.88820361  0.37728267    -0.79500
O141        O  0.62980363  0.86684610  0.55286325    -0.82200
C142        C  0.75556669  0.82566908  0.46742346     0.98500
C143        C  0.73125345  0.93455048  0.40239736     1.06000
O144        O  0.66353227  0.87782377  0.46522656    -1.11200
O145        O  0.60519406  0.94331116  0.50017635    -0.73700
O146        O  0.67408600  0.95711883  0.52466219    -0.77100
O147        O  0.72348523  0.80964395  0.44395517    -0.77800
C148        C  0.63369805  0.96800256  0.51977131     0.97400
O149        O  0.70459942  0.87028327  0.55139507    -0.75800
O150        O  0.57400317  0.88536705  0.43012248    -0.81000
C151        C  0.60325313  0.78462605  0.44866204     1.00100
C152        C  0.58770570  0.89837289  0.39222478     1.06000
O153        O  0.62981341  0.79817732  0.41868243    -0.76600
C154        C  0.66785590  0.86499773  0.57155783     1.04300
Fe155      Fe  0.67425217  0.94226319  0.76705388     1.65800
Fe156      Fe  0.64978807  0.83325721  0.77309538     1.73200
Fe157      Fe  0.60930548  0.90347372  0.85032853     1.54400
O158        O  0.65422952  0.95112628  0.87443966    -0.80400
O159        O  0.58094707  0.82001174  0.77381531    -0.78700
O160        O  0.70841022  0.95802089  0.82392809    -0.82900
O161        O  0.62618434  0.98747718  0.78301252    -0.77700
O162        O  0.64491836  0.85494902  0.88828108    -0.79500
O163        O  0.64483744  0.85469320  0.70902737    -0.82200
C164        C  0.58500963  0.98222348  0.78958845     0.98500
C165        C  0.69232730  0.96538650  0.86236206     1.06000
O166        O  0.64469934  0.89255500  0.79710089    -1.11200
O167        O  0.71888260  0.83905533  0.76976763    -0.73700
O168        O  0.72886713  0.90746092  0.74533596    -0.77100
O169        O  0.57084299  0.95002289  0.81317932    -0.77800
C170        C  0.74287652  0.86880806  0.75183883     0.97400
O171        O  0.64135649  0.92833188  0.70835252    -0.75800
O172        O  0.65700303  0.80555547  0.83453937    -0.81000
C173        C  0.55249314  0.82918772  0.80386988     1.00100
C174        C  0.65786819  0.81674554  0.87543377     1.06000
O175        O  0.56042142  0.85760140  0.83418861    -0.76600
C176        C  0.64069241  0.89118840  0.68905416     1.04300
Fe177      Fe  0.27236558  0.81177719  0.03706914     1.65800
Fe178      Fe  0.26814291  0.82976021  0.14845104     1.73200
Fe179      Fe  0.34738664  0.87823302  0.08784595     1.54400
O180        O  0.37590191  0.84003177  0.03560937    -0.80400
O181        O  0.26285296  0.89599202  0.16440509    -0.78700
O182        O  0.33188516  0.78125572  0.02733909    -0.82900
O183        O  0.29311000  0.86289958  0.99680559    -0.77700
O184        O  0.38208095  0.83747864  0.13499496    -0.79500
O185        O  0.20699697  0.83178470  0.11981028    -0.82200
C186        C  0.28984123  0.90320023  0.00654476     0.98500
C187        C  0.36836352  0.80125360  0.02032590     1.06000
O188        O  0.29600261  0.83988515  0.09156299    -1.11200
O189        O  0.27175169  0.76256486  0.13881219    -0.73700
O190        O  0.24784305  0.75584957  0.06837072    -0.77100
O191        O  0.30945159  0.91791383  0.04198318    -0.77800
C192        C  0.25429766  0.74017000  0.10726796     0.97400
O193        O  0.21169275  0.84117177  0.04550684    -0.75800
O194        O  0.32633276  0.82660821  0.18281160    -0.81000
C195        C  0.29429216  0.92404940  0.16634549     1.00100
C196        C  0.36645279  0.82138051  0.17162641     1.06000
O197        O  0.32825975  0.92092581  0.14092665    -0.76600
C198        C  0.18978780  0.83997005  0.08173340     1.04300
Fe199      Fe  0.98991721  0.79805142  0.07814327     1.65800
Fe200      Fe  0.99440935  0.90022097  0.12167442     1.73200
Fe201      Fe  0.91181653  0.83100338  0.15331130     1.54400
O202        O  0.88034411  0.79060646  0.10713860    -0.80400
O203        O  0.97865870  0.91822948  0.18759185    -0.78700
O204        O  0.93084117  0.77075826  0.05771667    -0.82900
O205        O  0.99432246  0.75540579  0.13076125    -0.77700
O206        O  0.88038620  0.88598470  0.12102743    -0.79500
O207        O  0.05110750  0.87165345  0.14418467    -0.82200
C208        C  0.97699630  0.75101753  0.16924433     0.98500
C209        C  0.89163318  0.76958035  0.07261293     1.06000
O210        O  0.96463881  0.84302391  0.11784019    -1.11200
O211        O  0.01605752  0.89652460  0.05493711    -0.73700
O212        O  0.98825152  0.83688089  0.02196148    -0.77100
O213        O  0.94566137  0.77625629  0.18378064    -0.77800
C214        C  0.00912782  0.87293336  0.02015031     0.97400
O215        O  0.05365690  0.81941006  0.09167324    -0.75800
O216        O  0.93829287  0.92833896  0.09941800    -0.81000
C217        C  0.95158830  0.90330754  0.21619907     1.00100
C218        C  0.89697803  0.91939970  0.10002753     1.06000
O219        O  0.92886110  0.86902211  0.20846527    -0.76600
C220        C  0.07220969  0.84563342  0.11927487     1.04300
Fe221      Fe  0.42449555  0.98814426  0.29782031     1.65800
Fe222      Fe  0.38588665  0.99338044  0.40299328     1.73200
Fe223      Fe  0.35909919  0.07406065  0.33050826     1.54400
O224        O  0.41197391  0.10018874  0.29616268    -0.80400
O225        O  0.32365103  0.01743870  0.42164113    -0.78700
O226        O  0.44761502  0.04398796  0.26544989    -0.82900
O227        O  0.37019365  0.98468783  0.25693158    -0.77700
O228        O  0.38859030  0.10305293  0.39002243    -0.79500
O229        O  0.35532556  0.94087093  0.37568540    -0.82200
C230        C  0.33841867  0.01038924  0.24726689     0.98500
C231        C  0.44160833  0.08493222  0.27072269     1.06000
O232        O  0.39004242  0.01953267  0.34358954    -1.11200
O233        O  0.44934754  0.96490024  0.39828407    -0.73700
O234        O  0.48204378  0.98728637  0.33556536    -0.77100
O235        O  0.33074874  0.04619530  0.26945518    -0.77800
C236        C  0.48364910  0.96868960  0.37357077     0.97400
O237        O  0.40746809  0.92806872  0.32478190    -0.75800
O238        O  0.41561057  0.04589664  0.42963643    -0.81000
C239        C  0.29407885  0.04082789  0.40276196     1.00100
C240        C  0.41246030  0.08677526  0.42241617     1.06000
O241        O  0.30053499  0.05798839  0.36442099    -0.76600
C242        C  0.37904099  0.91519771  0.35327707     1.04300
Fe243      Fe  0.46762574  0.72849671  0.33740155     1.65800
Fe244      Fe  0.35934177  0.72333241  0.37137119     1.73200
Fe245      Fe  0.43070457  0.64401312  0.39954503     1.54400
O246        O  0.47958868  0.62447706  0.35413608    -0.80400
O247        O  0.35240978  0.71855835  0.44117345    -0.78700
O248        O  0.48021929  0.67410462  0.29923430    -0.82900
O249        O  0.51450324  0.70797794  0.38390808    -0.77700
O250        O  0.38241080  0.61356368  0.35670861    -0.79500
O251        O  0.38361414  0.78416303  0.37855649    -0.82200
C252        C  0.50961649  0.70238764  0.42572899     0.98500
C253        C  0.49082240  0.63679671  0.31496519     1.06000
O254        O  0.41894100  0.69893948  0.36927250    -1.11200
O255        O  0.35921360  0.73159041  0.30172680    -0.73700
O256        O  0.42840027  0.75320702  0.28579181    -0.77100
O257        O  0.47778099  0.67833714  0.44058139    -0.77800
C258        C  0.38760710  0.74904260  0.27537496     0.97400
O259        O  0.45788680  0.78530564  0.37291336    -0.75800
O260        O  0.32911589  0.66386477  0.36384595    -0.81000
C261        C  0.35889015  0.68394378  0.46424274     1.00100
C262        C  0.34343980  0.62851306  0.34697808     1.06000
O263        O  0.38378911  0.65322725  0.45004428    -0.76600
C264        C  0.42061036  0.80402918  0.37839287     1.04300
Fe265      Fe  0.51411268  0.68819108  0.91202771     1.65800
Fe266      Fe  0.49938520  0.58202411  0.88220765     1.73200
Fe267      Fe  0.41990253  0.65498588  0.85490285     1.54400
O268        O  0.40054479  0.69468136  0.90709849    -0.80400
O269        O  0.47198455  0.56147357  0.82122064    -0.78700
O270        O  0.46133993  0.72467286  0.93750093    -0.82900
O271        O  0.51397965  0.72318245  0.85429643    -0.77700
O272        O  0.38921435  0.60136490  0.89058452    -0.79500
O273        O  0.55207000  0.60291641  0.84703896    -0.82200
C274        C  0.48639327  0.72989163  0.82264366     0.98500
C275        C  0.41930099  0.72067460  0.93461709     1.06000
O276        O  0.47683183  0.64193267  0.88352829    -1.11200
O277        O  0.53068885  0.58996110  0.94491634    -0.73700
O278        O  0.51862079  0.65676204  0.97268072    -0.77100
O279        O  0.44899869  0.70909030  0.81883723    -0.77800
C280        C  0.53224377  0.61770149  0.97702604     0.97400
O281        O  0.57246892  0.65703766  0.89275395    -0.75800
O282        O  0.44632300  0.56036137  0.91575414    -0.81000
C283        C  0.44697527  0.57893871  0.79180815     1.00100
C284        C  0.40527112  0.56964100  0.91463903     1.06000
O285        O  0.42942261  0.61634514  0.79801134    -0.76600
C286        C  0.58138358  0.62497337  0.86696073     1.04300
Fe287      Fe  0.74610764  0.64503289  0.97744636     1.65800
Fe288      Fe  0.75105577  0.61803364  0.86755103     1.73200
Fe289      Fe  0.84064510  0.60213023  0.93116526     1.54400
O290        O  0.85896422  0.65726934  0.96605579    -0.80400
O291        O  0.78771630  0.56616956  0.84021197    -0.78700
O292        O  0.79995983  0.67916402  0.00513931    -0.82900
O293        O  0.75965697  0.59068621  0.01695761    -0.77700
O294        O  0.85825305  0.63648452  0.87172123    -0.79500
O295        O  0.70989655  0.57349605  0.89537159    -0.82200
C296        C  0.79404433  0.56667097  0.01989148     0.98500
C297        C  0.84093900  0.68188030  0.99485376     1.06000
O298        O  0.77999877  0.62230261  0.92582901    -1.11200
O299        O  0.70782501  0.67011313  0.88063207    -0.73700
O300        O  0.72787710  0.70288073  0.94403160    -0.77100
O301        O  0.82596733  0.56847063  0.99142838    -0.77800
C302        C  0.70650397  0.70286169  0.90709277     0.97400
O303        O  0.68872516  0.61391489  0.95394187    -0.75800
O304        O  0.79445877  0.66212294  0.84158969    -0.81000
C305        C  0.81538671  0.53878480  0.85618379     1.00100
C306        C  0.83672925  0.66106174  0.84382728     1.06000
O307        O  0.83113747  0.54352557  0.89563722    -0.76600
C308        C  0.68063489  0.58710880  0.92196573     1.01900
Fe309      Fe  0.29938932  0.41386687  0.01506614     1.65800
Fe310      Fe  0.40714251  0.37721260  0.01698331     1.73200
Fe311      Fe  0.33818221  0.35224086  0.10002211     1.54400
O312        O  0.29033071  0.39658375  0.12090997    -0.80400
O313        O  0.41383644  0.30873815  0.02344132    -0.78700
O314        O  0.28974723  0.45112465  0.07120546    -0.82900
O315        O  0.25244534  0.36918418  0.03696482    -0.77700
O316        O  0.38823268  0.39369854  0.12951027    -0.79500
O317        O  0.37997800  0.36938108  0.95561063    -0.82200
C318        C  0.25728505  0.32803970  0.04174055     0.98500
C319        C  0.27971033  0.43527791  0.10914967     1.06000
O320        O  0.34856468  0.38127683  0.04360188    -1.11200
O321        O  0.40835087  0.44509537  0.00760171    -0.73700
O322        O  0.33870597  0.46358358  0.98885650    -0.77100
O323        O  0.28961735  0.31282200  0.06571844    -0.77800
C324        C  0.37996072  0.47219032  0.99155765     0.97400
O325        O  0.30599466  0.37892730  0.95706085    -0.75800
O326        O  0.43959901  0.38532131  0.07665341    -0.81000
C327        C  0.40837563  0.28752828  0.05979689     1.00100
C328        C  0.42710410  0.40190305  0.11338506     1.06000
O329        O  0.38415331  0.30252290  0.09081839    -0.76600
C330        C  0.34193387  0.37043367  0.93692223     1.04300
Fe331      Fe  0.33171231  0.43540033  0.74257511     1.65800
Fe332      Fe  0.36865222  0.33113406  0.74077242     1.73200
Fe333      Fe  0.39631951  0.39944270  0.65622013     1.54400
O334        O  0.34683710  0.43848035  0.62878650    -0.80400
O335        O  0.43144343  0.31112364  0.71971473    -0.78700
O336        O  0.30964672  0.46676518  0.68571064    -0.82900
O337        O  0.38661886  0.47414855  0.74457216    -0.77700
O338        O  0.36221172  0.34366375  0.62732817    -0.79500
O339        O  0.39843288  0.35811609  0.79464223    -0.82200
C340        C  0.42092586  0.47944922  0.72065244     0.98500
C341        C  0.31753727  0.46394620  0.64424641     1.06000
O342        O  0.36541203  0.38877759  0.71214901    -1.11200
O343        O  0.30444576  0.33781102  0.76722474    -0.73700
O344        O  0.27365632  0.40016083  0.74316929    -0.77100
O345        O  0.42953914  0.45538176  0.68600752    -0.77800
C346        C  0.27079989  0.36296047  0.76185045     0.97400
O347        O  0.34793739  0.41048088  0.80487911    -0.75800
O348        O  0.34022113  0.30393449  0.68698693    -0.81000
C349        C  0.45990894  0.32692960  0.69314771     1.00100
C350        C  0.34028407  0.31151902  0.64523738     1.06000
O351        O  0.45240091  0.36201456  0.67136134    -0.76600
C352        C  0.37618214  0.38280443  0.81946870     1.04300
Fe353      Fe  0.05300060  0.23852882  0.83715205     1.65800
Fe354      Fe  0.16173696  0.25265634  0.86762944     1.73200
Fe355      Fe  0.08541753  0.33016709  0.88997772     1.54400
O356        O  0.03543475  0.34216658  0.84171259    -0.80400
O357        O  0.17264100  0.26686606  0.93576228    -0.78700
O358        O  0.03799582  0.28717942  0.79239985    -0.82900
O359        O  0.00499903  0.26248803  0.87935395    -0.77700
O360        O  0.13111976  0.36080495  0.84602477    -0.79500
O361        O  0.14132143  0.19190984  0.88456872    -0.82200
C362        C  0.00906335  0.27187044  0.92048473     0.98500
C363        C  0.02548546  0.32530748  0.80365770     1.06000
O364        O  0.10070701  0.27378191  0.86459341    -1.11200
O365        O  0.15985161  0.23547417  0.79958533    -0.73700
O366        O  0.09154269  0.20890163  0.78860351    -0.77100
O367        O  0.04063058  0.29720693  0.93387095    -0.77800
C368        C  0.13132077  0.21420106  0.77606501     0.97400
O369        O  0.06654225  0.18856409  0.88138539    -0.75800
O370        O  0.18684894  0.31204085  0.85029652    -0.81000
C371        C  0.16295413  0.30212323  0.95628814     1.00100
C372        C  0.17019631  0.34750495  0.83539738     1.06000
O373        O  0.13341809  0.32830771  0.94108948    -0.76600
C374        C  0.10459329  0.17205951  0.88955275     1.04300
Fe375      Fe  0.08652666  0.99215902  0.80426930     1.65800
Fe376      Fe  0.11242810  0.97121150  0.91346327     1.73200
Fe377      Fe  0.13649274  0.89767696  0.83356636     1.54400
O378        O  0.09041019  0.88642675  0.78167705    -0.80400
O379        O  0.18126091  0.96332846  0.92192555    -0.78700
O380        O  0.04489537  0.94415872  0.78042399    -0.82900
O381        O  0.13366169  0.97652832  0.75737479    -0.77700
O382        O  0.08904293  0.86757770  0.87660160    -0.79500
O383        O  0.12035133  0.03554760  0.89982742    -0.82200
C384        C  0.17159998  0.95826399  0.75873007     0.98500
C385        C  0.05445872  0.90523587  0.76921760     1.06000
O386        O  0.11253085  0.95421595  0.85017158    -1.11200
O387        O  0.04317363  0.98017415  0.91018591    -0.73700
O388        O  0.03487023  0.01377083  0.84394857    -0.77100
O389        O  0.18162511  0.92930184  0.78869446    -0.77800
C390        C  0.02034588  0.00323302  0.88231484     0.97400
O391        O  0.12675355  0.04242124  0.82547931    -0.75800
O392        O  0.10585013  0.90848129  0.93512304    -0.81000
C393        C  0.20151104  0.92756923  0.91318727     1.00100
C394        C  0.08180543  0.87953392  0.91698852     1.06000
O395        O  0.18605385  0.90022375  0.88426169    -0.76600
C396        C  0.12861376  0.05757481  0.86500784     1.04300
Fe397      Fe  0.94000431  0.73344496  0.67879920     1.65800
Fe398      Fe  0.83544217  0.76475136  0.64758964     1.73200
Fe399      Fe  0.92382157  0.82898664  0.62457724     1.54400
O400        O  0.97377878  0.83633164  0.67290191    -0.80400
O401        O  0.83272639  0.76979543  0.57805432    -0.78700
O402        O  0.97004568  0.77932886  0.71977461    -0.82900
O403        O  0.98967683  0.74122798  0.63218639    -0.77700
O404        O  0.88209112  0.86497869  0.66849299    -0.79500
O405        O  0.84017973  0.69890612  0.64367540    -0.82200
C406        C  0.99417360  0.76128801  0.59512701     0.98500
C407        C  0.98501280  0.81688627  0.70914033     1.06000
O408        O  0.90011833  0.77532820  0.64998164    -1.11200
O409        O  0.83405891  0.75798704  0.71677887    -0.73700
O410        O  0.89605787  0.71933709  0.72965974    -0.77100
O411        O  0.96818432  0.79287815  0.58314048    -0.77800
C412        C  0.85816070  0.73330958  0.74159466     0.97400
O413        O  0.91294556  0.68513026  0.63957877    -0.75800
O414        O  0.82009535  0.82962597  0.65133773    -0.81000
C415        C  0.84601950  0.80336646  0.55637832     1.00100
C416        C  0.84052929  0.85805614  0.67424955     1.06000
O417        O  0.87617415  0.82912843  0.57207615    -0.76600
C418        C  0.87230499  0.67350892  0.63720891     1.04300
Fe419      Fe  0.92885213  0.49925893  0.69681427     1.65800
Fe420      Fe  0.90141030  0.46482167  0.59174087     1.73200
Fe421      Fe  0.87630469  0.40213756  0.68063528     1.54400
O422        O  0.92489123  0.39397993  0.72973254    -0.80400
O423        O  0.83193815  0.46285152  0.58761094    -0.78700
O424        O  0.96764704  0.45410000  0.73066971    -0.82900
O425        O  0.88044238  0.49390266  0.74475259    -0.77700
O426        O  0.92039013  0.36556319  0.63864959    -0.79500
O427        O  0.90254799  0.53074983  0.59385583    -0.82200
C428        C  0.84555951  0.47124986  0.75122433     0.98500
C429        C  0.95935628  0.41496789  0.74276169     1.06000
O430        O  0.90134217  0.45612631  0.65714867    -1.11200
O431        O  0.97115472  0.46767769  0.59364291    -0.73700
O432        O  0.98126578  0.51035980  0.65411309    -0.77100
O433        O  0.83549644  0.43762591  0.72676982    -0.77800
C434        C  0.99487287  0.49402280  0.61752059     0.97400
O435        O  0.89213646  0.54743942  0.66571275    -0.75800
O436        O  0.89884617  0.39978427  0.57837501    -0.81000
C437        C  0.80926903  0.42987535  0.60128003     1.00100
C438        C  0.92458713  0.37294520  0.59681146     1.06000
O439        O  0.82386121  0.40412060  0.63237396    -0.76600
C440        C  0.89430114  0.55760310  0.62441241     1.04300
Fe441      Fe  0.01018873  0.29319677  0.42648989     1.65800
Fe442      Fe  0.02039750  0.39808000  0.39397905     1.73200
Fe443      Fe  0.09763439  0.32521518  0.36050748     1.54400
O444        O  0.12373785  0.28748056  0.41222460    -0.80400
O445        O  0.04298475  0.41779688  0.33101062    -0.78700
O446        O  0.06538207  0.25846063  0.44706904    -0.82900
O447        O  0.00494159  0.25658313  0.36957633    -0.77700
O448        O  0.13106619  0.38074355  0.38933767    -0.79500
O449        O  0.96357835  0.37798170  0.36407441    -0.82200
C450        C  0.02970036  0.24921554  0.33615702     0.98500
C451        C  0.10696052  0.26171864  0.44100707     1.06000
O452        O  0.04355141  0.33856183  0.39372309    -1.11200
O453        O  0.99333341  0.39103694  0.45814524    -0.73700
O454        O  0.01166531  0.32613050  0.48698061    -0.77100
O455        O  0.06643448  0.26989948  0.32927472    -0.77800
C456        C  0.99517944  0.36415267  0.49102322     0.97400
O457        O  0.95002059  0.32278384  0.41131739    -0.75800
O458        O  0.07676043  0.41872306  0.42314549    -0.81000
C459        C  0.06384014  0.39947728  0.29935587     1.00100
C460        C  0.11735922  0.41275199  0.41380411     1.06000
O461        O  0.08033278  0.36134949  0.30374383    -0.76600
C462        C  0.93731645  0.35350704  0.38521896     1.04300
Fe463      Fe  0.74543561  0.32171260  0.46723092     1.65800
Fe464      Fe  0.74102586  0.35658774  0.35836399     1.73200
Fe465      Fe  0.66031924  0.38332625  0.43002462     1.54400
O466        O  0.64049400  0.33733434  0.47797246    -0.80400
O467        O  0.73303303  0.42464967  0.34901794    -0.78700
O468        O  0.69039207  0.28336644  0.47619425    -0.82900
O469        O  0.72271177  0.36526055  0.51486943    -0.77700
O470        O  0.62833677  0.34343051  0.38063494    -0.79500
O471        O  0.80228219  0.36707762  0.38455642    -0.82200
C472        C  0.72000745  0.40648307  0.50993019     0.98500
C473        C  0.65220181  0.29789569  0.48605865     1.06000
O474        O  0.71581826  0.35361812  0.41790582    -1.11200
O475        O  0.75264326  0.28898405  0.35831240    -0.73700
O476        O  0.77258457  0.27243741  0.42844171    -0.77100
O477        O  0.69614927  0.42235818  0.47784907    -0.77800
C478        C  0.76999225  0.26301451  0.38716811     0.97400
O479        O  0.80234416  0.35816151  0.45940247    -0.75800
O480        O  0.68115260  0.34499591  0.32803905    -0.81000
C481        C  0.69791442  0.44675942  0.35605308     1.00100
C482        C  0.64321249  0.33268384  0.34179184     1.06000
O483        O  0.66859205  0.43336096  0.38328662    -0.76600
C484        C  0.82158276  0.36677931  0.42260597     1.04300
Fe485      Fe  0.83775114  0.04144499  0.26371093     1.65800
Fe486      Fe  0.86742962  0.14923541  0.27234046     1.73200
Fe487      Fe  0.89727013  0.07745542  0.35217655     1.54400
O488        O  0.85167317  0.02928315  0.37072335    -0.80400
O489        O  0.93633507  0.15819516  0.27807712    -0.78700
O490        O  0.79878620  0.02740784  0.31767572    -0.82900
O491        O  0.88348718  0.99487995  0.28475342    -0.77700
O492        O  0.85546858  0.12411725  0.38416990    -0.79500
O493        O  0.87421001  0.12750166  0.20919390    -0.82200
C494        C  0.92464254  0.99981721  0.29313079     0.98500
C495        C  0.81300073  0.01839713  0.35682184     1.06000
O496        O  0.86749236  0.08965081  0.29589829    -1.11200
O497        O  0.79866115  0.14675778  0.26463532    -0.73700
O498        O  0.78667056  0.07958133  0.23720369    -0.77100
O499        O  0.93842694  0.03163598  0.31789809    -0.77800
C500        C  0.77432818  0.11880519  0.24401386     0.97400
O501        O  0.87515133  0.05381237  0.20813110    -0.75800
O502        O  0.85930299  0.17768030  0.33318125    -0.81000
C503        C  0.95958503  0.15087261  0.31323029     1.00100
C504        C  0.84520297  0.16275660  0.37003209     1.06000
O505        O  0.94675029  0.12430749  0.34342463    -0.76600
C506        C  0.87755001  0.09109316  0.18918565     1.04300
Fe507      Fe  0.79815272  0.07855024  0.99961748     1.65800
Fe508      Fe  0.90794778  0.10677976  0.99136592     1.73200
Fe509      Fe  0.83517196  0.13380396  0.91033238     1.54400
O510        O  0.78510777  0.08888372  0.89317731    -0.80400
O511        O  0.91930322  0.17426949  0.98239768    -0.78700
O512        O  0.78367923  0.03793786  0.94699710    -0.82900
O513        O  0.75174956  0.12263326  0.97564623    -0.77700
O514        O  0.88164913  0.09031821  0.88004472    -0.79500
O515        O  0.88565552  0.11758706  0.05367212    -0.82200
C516        C  0.75739821  0.16317863  0.96825448     0.98500
C517        C  0.77369584  0.05118198  0.90783802     1.06000
O518        O  0.84751892  0.10631434  0.96729327    -1.11200
O519        O  0.90416210  0.03951379  0.00221413    -0.73700
O520        O  0.83569333  0.02902829  0.02840883    -0.77100
O521        O  0.78977461  0.17633431  0.94381334    -0.77800
C522        C  0.87520338  0.01622329  0.02229812     0.97400
O523        O  0.81084759  0.11779837  0.05389855    -0.75800
O524        O  0.93623989  0.09423948  0.93140428    -0.81000
C525        C  0.91162705  0.19583276  0.94654497     1.00100
C526        C  0.92045245  0.07937679  0.89497835     1.06000
O527        O  0.88365409  0.18233595  0.91731788    -0.76600
C528        C  0.84860489  0.12117325  0.07311218     1.04300
C529        C  0.87837729  0.09348183  0.14130994    -0.15100
C530        C  0.85086453  0.12230665  0.12098672    -0.30300
H531        H  0.89744271  0.06936532  0.12257407     0.13900
H532        H  0.82739665  0.14237292  0.13956838     0.14500
C533        C  0.79021449  0.22180608  0.37054810    -0.15100
C534        C  0.81580676  0.19338390  0.39499955    -0.30300
H535        H  0.78790405  0.21727613  0.33435905     0.13900
H536        H  0.81786182  0.19537431  0.43135757     0.14500
C537        C  0.01270893  0.21466935  0.30513829    -0.15100
C538        C  0.00123772  0.17570053  0.32354736    -0.30300
H539        H  0.99745983  0.22523043  0.27372943     0.13900
H540        H  0.01694825  0.16716588  0.35549519     0.14500
C541        C  0.86958017  0.37052145  0.42248098    -0.15100
C542        C  0.89094909  0.36413236  0.38370838    -0.30300
H543        H  0.88758766  0.37022372  0.45437974     0.13900
H544        H  0.87428009  0.36485356  0.35116380     0.14500
C545        C  0.76663555  0.41652501  0.57838416    -0.15100
C546        C  0.74854867  0.43443509  0.54044963    -0.30300
H547        H  0.75299968  0.38539815  0.59000512     0.13900
H548        H  0.76036226  0.46599918  0.52821514     0.14500
C549        C  0.97406397  0.37866958  0.53308401    -0.15100
C550        C  0.95921931  0.35321699  0.56746499    -0.30300
H551        H  0.96380627  0.41288136  0.53195165     0.13900
H552        H  0.96867198  0.31892623  0.57087253     0.14500
C553        C  0.86174959  0.62793271  0.63110475    -0.15100
C554        C  0.89102280  0.60265305  0.61125923    -0.30300
H555        H  0.83410859  0.61396235  0.64977430     0.13900
H556        H  0.91730693  0.61633860  0.59051718     0.14500
C557        C  0.02278518  0.88227527  0.73933781    -0.15100
C558        C  0.01730014  0.83845925  0.73969340    -0.30300
H559        H  0.00161740  0.90244875  0.71781234     0.13900
H560        H  0.03581040  0.81835623  0.76362854     0.14500
C561        C  0.97707060  0.02166726  0.89681578    -0.15100
C562        C  0.95059686  0.04854920  0.87134961    -0.30300
H563        H  0.96975037  0.01785550  0.93230461     0.13900
H564        H  0.95541237  0.05193855  0.83544015     0.14500
C565        C  0.97689321  0.24967283  0.95142048    -0.15100
C566        C  0.93691360  0.23646257  0.93439166    -0.30300
H567        H  0.98922909  0.23649380  0.98307441     0.13900
H568        H  0.92601754  0.25144871  0.90294559     0.14500
C569        C  0.99610681  0.34913570  0.77229618    -0.15100
C570        C  0.99096812  0.39293857  0.77343656    -0.30300
H571        H  0.97829719  0.32990036  0.74707376     0.13900
H572        H  0.01110452  0.41285219  0.79618659     0.14500
C573        C  0.13562554  0.10367105  0.87085680    -0.15100
C574        C  0.10756288  0.12568869  0.89736066    -0.30300
H575        H  0.15722180  0.12060865  0.84721890     0.13900
H576        H  0.08151349  0.10900633  0.91609620     0.14500
C577        C  0.22811317  0.34724693  0.77943006    -0.15100
C578        C  0.19941973  0.37171066  0.80391698    -0.30300
H579        H  0.22461174  0.31159446  0.77951346     0.13900
H580        H  0.20155372  0.40737173  0.80491977     0.14500
C581        C  0.18783996  0.31691437  0.99748006    -0.15100
C582        C  0.22561857  0.29912923  0.01550344    -0.30300
H583        H  0.17757980  0.34893641  0.00982595     0.13900
H584        H  0.23666565  0.26678378  0.00504438     0.14500
C585        C  0.34098773  0.36729429  0.88872634    -0.15100
C586        C  0.37875250  0.37515535  0.86654727    -0.30300
H587        H  0.30897554  0.36577176  0.87123000     0.13900
H588        H  0.41135349  0.37625125  0.88278008     0.14500
C589        C  0.81604611  0.48804085  0.78781947    -0.15100
C590        C  0.83457141  0.50377075  0.82661626    -0.30300
H591        H  0.78123126  0.49433995  0.77999523     0.13900
H592        H  0.86887361  0.49479454  0.83424944     0.14500
C593        C  0.86119291  0.68744879  0.81041562    -0.15100
C594        C  0.83978175  0.71735521  0.78436432    -0.30300
H595        H  0.89569386  0.67897567  0.80398561     0.13900
H596        H  0.80554672  0.72628679  0.79164262     0.14500
C597        C  0.43284212  0.55329047  0.75127880    -0.15100
C598        C  0.45128089  0.51488891  0.73736448    -0.30300
H599        H  0.40035320  0.56212258  0.73750070     0.13900
H600        H  0.48424404  0.50543690  0.74919082     0.14500
C601        C  0.39716557  0.51432980  0.97393586    -0.15100
C602        C  0.37691693  0.53965976  0.94197092    -0.30300
H603        H  0.43163027  0.52124569  0.98321263     0.13900
H604        H  0.34236903  0.53410985  0.93229978     0.14500
C605        C  0.62507439  0.60621512  0.86958054    -0.15100
C606        C  0.63531742  0.58372363  0.90708286    -0.30300
H607        H  0.65027494  0.61750794  0.84624774     0.13900
H608        H  0.61025520  0.57601157  0.93185035     0.14500
C609        C  0.37933666  0.87004607  0.36603112    -0.15100
C610        C  0.41833461  0.85138116  0.37762144    -0.30300
H611        H  0.34785129  0.85228457  0.36539482     0.13900
H612        H  0.44911480  0.87038524  0.37852303     0.14500
C613        C  0.94075190  0.92800496  0.25823908    -0.15100
C614        C  0.95555087  0.96880380  0.26968195    -0.30300
H615        H  0.91195431  0.91541233  0.27609793     0.13900
H616        H  0.98500491  0.98239449  0.25391984     0.14500
C617        C  0.85818375  0.74146145  0.04973255    -0.15100
C618        C  0.87055547  0.71410699  0.01679175    -0.30300
H619        H  0.82402525  0.74144454  0.06150818     0.13900
H620        H  0.90505970  0.71403578  0.00595731     0.14500
C621        C  0.86933274  0.95096778  0.07397888    -0.15100
C622        C  0.88973878  0.97363265  0.04052379    -0.30300
H623        H  0.83602759  0.95927131  0.08501510     0.13900
H624        H  0.92268144  0.96347319  0.02971953     0.14500
C625        C  0.02931726  0.88788999  0.97790110    -0.15100
C626        C  0.04605170  0.86113847  0.94566947    -0.30300
H627        H  0.03852540  0.92252395  0.97770665     0.13900
H628        H  0.03776054  0.82637162  0.94425806     0.14500
C629        C  0.24281872  0.91369973  0.93819916    -0.15100
C630        C  0.25988493  0.93093729  0.97701287    -0.30300
H631        H  0.25670420  0.88283351  0.92645731     0.13900
H632        H  0.24721380  0.96182987  0.98988382     0.14500
C633        C  0.31272184  0.99657549  0.20623895    -0.15100
C634        C  0.29426305  0.95574788  0.20512560    -0.30300
H635        H  0.32134547  0.01246444  0.17483518     0.13900
H636        H  0.28537090  0.94102969  0.23711008     0.14500
C637        C  0.40204013  0.77904033  0.99188817    -0.15100
C638        C  0.38954433  0.74569556  0.96456561    -0.30300
H639        H  0.43622682  0.79087136  0.99205070     0.13900
H640        H  0.35464582  0.73598873  0.96344762     0.14500
C641        C  0.37106190  0.76695386  0.23210293    -0.15100
C642        C  0.39330140  0.79535931  0.20462442    -0.30300
H643        H  0.33602581  0.76015674  0.22525414     0.13900
H644        H  0.42860548  0.80208043  0.20929877     0.14500
C645        C  0.14193961  0.84546657  0.08064564    -0.15100
C646        C  0.11990946  0.84799997  0.11954583    -0.30300
H647        H  0.12434894  0.84412441  0.04856180     0.13900
H648        H  0.13692790  0.85247111  0.15161026     0.14500
C649        C  0.50943222  0.80465545  0.80794101    -0.15100
C650        C  0.50121650  0.76433043  0.79054553    -0.30300
H651        H  0.48949293  0.81428472  0.83663577     0.13900
H652        H  0.52128232  0.75306297  0.76269243     0.14500
C653        C  0.74765478  0.02248762  0.87800106    -0.15100
C654        C  0.71863991  0.99254277  0.89366585    -0.30300
H655        H  0.75066244  0.02779938  0.84201164     0.13900
H656        H  0.71261468  0.98968968  0.92950622     0.14500
C657        C  0.67680776  0.78252507  0.90668731    -0.15100
C658        C  0.67871510  0.74039338  0.89132185    -0.30300
H659        H  0.69292385  0.79201571  0.93802275     0.13900
H660        H  0.66046803  0.73265459  0.86055363     0.14500
C661        C  0.78703920  0.85611909  0.73460699    -0.15100
C662        C  0.81320739  0.88134844  0.70787755    -0.30300
H663        H  0.79436985  0.82152919  0.73771085     0.13900
H664        H  0.80737684  0.91638182  0.70404450     0.14500
C665        C  0.78672292  0.79801905  0.49504699    -0.15100
C666        C  0.82372995  0.81682499  0.51354507    -0.30300
H667        H  0.77546684  0.76592728  0.50640351     0.13900
H668        H  0.83454036  0.84850020  0.50048546     0.14500
C669        C  0.58002140  0.74217134  0.43856381    -0.15100
C670        C  0.54080606  0.72783581  0.45573106    -0.30300
H671        H  0.59159810  0.72617786  0.40819290     0.13900
H672        H  0.52795118  0.74199637  0.48641302     0.14500
C673        C  0.75541714  0.96344380  0.37163267    -0.15100
C674        C  0.78451344  0.99335662  0.38727705    -0.30300
H675        H  0.75260087  0.95724836  0.33576990     0.13900
H676        H  0.79040835  0.99656638  0.42320889     0.14500
C677        C  0.55586246  0.92686423  0.36694727    -0.15100
C678        C  0.52537238  0.94956975  0.39107387    -0.30300
H679        H  0.55518941  0.92697133  0.33046276     0.13900
H680        H  0.52744473  0.94872300  0.42757077     0.14500
C681        C  0.66770355  0.86292651  0.61969108    -0.15100
C682        C  0.63927893  0.88962934  0.64100618    -0.30300
H683        H  0.69276863  0.84375555  0.63761540     0.13900
H684        H  0.61825413  0.91291028  0.62287335     0.14500
C685        C  0.47104954  0.23180669  0.05286369    -0.15100
C686        C  0.43213262  0.24564698  0.07059400    -0.30300
H687        H  0.48205745  0.24444958  0.02068299     0.13900
H688        H  0.42295784  0.23142032  0.10281919     0.14500
C689        C  0.72652129  0.19364694  0.99230968    -0.15100
C690        C  0.68565079  0.17855942  0.00429037    -0.30300
H691        H  0.74034107  0.22300367  0.00784136     0.13900
H692        H  0.67272710  0.14993029  0.98652212     0.14500
C693        C  0.46956420  0.11701880  0.24659686    -0.15100
C694        C  0.49963802  0.10536255  0.21571290    -0.30300
H695        H  0.46420913  0.15165306  0.25374396     0.13900
H696        H  0.50428771  0.07085958  0.20752792     0.14500
C697        C  0.70768308  0.11440393  0.19213560    -0.15100
C698        C  0.73133746  0.13427107  0.22561873    -0.30300
H699        H  0.71543826  0.08121226  0.18126293     0.13900
H700        H  0.72192633  0.16719394  0.23619546     0.14500
C701        C  0.64158038  0.28142400  0.27867989    -0.15100
C702        C  0.61782178  0.30416674  0.30964711    -0.30300
H703        H  0.67778470  0.28230947  0.28073308     0.13900
H704        H  0.58164155  0.30391648  0.30927400     0.14500
C705        C  0.70720206  0.50262940  0.29263994    -0.15100
C706        C  0.68635565  0.48723496  0.32973435    -0.30300
H707        H  0.74091425  0.49222487  0.28515255     0.13900
H708        H  0.65272900  0.49926667  0.33549600     0.14500
C709        C  0.77412330  0.53212797  0.09632714    -0.15100
C710        C  0.79997691  0.53720880  0.05937921    -0.30300
H711        H  0.78971387  0.51436609  0.12401228     0.13900
H712        H  0.83257793  0.52168721  0.06143074     0.14500
C713        C  0.54447374  0.62127985  0.25463533    -0.15100
C714        C  0.51803524  0.60676459  0.28784272    -0.30300
H715        H  0.54601255  0.65623293  0.24690472     0.13900
H716        H  0.51852741  0.57222029  0.29739877     0.14500
C717        C  0.54981702  0.60178387  0.02028563    -0.15100
C718        C  0.58119158  0.62212146  0.04636366    -0.30300
H719        H  0.54109332  0.56770473  0.02700916     0.13900
H720        H  0.59088960  0.65601540  0.04027200     0.14500
C721        C  0.64164047  0.37712911  0.13732857    -0.15100
C722        C  0.60220154  0.35927663  0.12667798    -0.30300
H723        H  0.67237622  0.35825574  0.13864671     0.13900
H724        H  0.57180136  0.37873011  0.12691540     0.14500
C725        C  0.49492589  0.44777917  0.11063778    -0.15100
C726        C  0.46066365  0.43155046  0.13573428    -0.30300
H727        H  0.49595269  0.43980756  0.07508331     0.13900
H728        H  0.45815061  0.43916429  0.17123944     0.14500
C729        C  0.51416302  0.26296297  0.70041070    -0.15100
C730        C  0.50150375  0.30223163  0.68245220    -0.30300
H731        H  0.49921635  0.25114913  0.73120915     0.13900
H732        H  0.51860217  0.31357273  0.65255614     0.14500
C733        C  0.57052324  0.05367285  0.75337662    -0.15100
C734        C  0.55447451  0.01366065  0.76558008    -0.30300
H735        H  0.60068552  0.06506864  0.77032305     0.13900
H736        H  0.52407113  0.00092226  0.75036177     0.14500
C737        C  0.62070521  0.26879861  0.50904367    -0.15100
C738        C  0.63523098  0.23576872  0.53514484    -0.30300
H739        H  0.58538588  0.27669106  0.50752171     0.13900
H740        H  0.67078160  0.23059904  0.54018658     0.14500
C741        C  0.61764681  0.00942450  0.53967744    -0.15100
C742        C  0.64128529  0.03621191  0.56777038    -0.30300
H743        H  0.58220359  0.01550329  0.53485047     0.13900
H744        H  0.67701913  0.03266471  0.57246595     0.14500
C745        C  0.47062792  0.09449744  0.48004572    -0.15100
C746        C  0.43781369  0.11429042  0.45532668    -0.30300
H747        H  0.48121512  0.06147081  0.47113659     0.13900
H748        H  0.42689855  0.14751164  0.46272806     0.14500
C749        C  0.25283946  0.05342566  0.42776587    -0.15100
C750        C  0.23993487  0.03684744  0.46823173    -0.30300
H751        H  0.23660774  0.08319531  0.41575399     0.13900
H752        H  0.25394466  0.00613025  0.48041229     0.14500
C753        C  0.18784587  0.98695709  0.68356602    -0.15100
C754        C  0.20398412  0.97534387  0.72470907    -0.30300
H755        H  0.15638646  0.97189424  0.67332699     0.13900
H756        H  0.23541070  0.98884054  0.73683702     0.14500
C757        C  0.12231244  0.20154573  0.49456579    -0.15100
C758        C  0.13730005  0.23474138  0.46880286    -0.30300
H759        H  0.08713280  0.19289882  0.49412133     0.13900
H760        H  0.17280681  0.24177919  0.46741378     0.14500
C761        C  0.14654323  0.19277273  0.73412916    -0.15100
C762        C  0.12087154  0.16944226  0.70434860    -0.30300
H763        H  0.18243472  0.19365145  0.72930235     0.13900
H764        H  0.08475006  0.16947274  0.70623052     0.14500
C765        C  0.36927746  0.11171291  0.59691131    -0.15100
C766        C  0.38883948  0.13881584  0.62686098    -0.30300
H767        H  0.38833510  0.09320058  0.57244586     0.13900
H768        H  0.36990835  0.16150880  0.64746399     0.14500
C769        C  0.28281009  0.25452902  0.64080772    -0.15100
C770        C  0.31360706  0.27930249  0.61870961    -0.30300
H771        H  0.27387984  0.26309809  0.67500495     0.13900
H772        H  0.32254243  0.27218840  0.58423263     0.14500
C773        C  0.07472096  0.42480640  0.25791741    -0.15100
C774        C  0.05672822  0.46418456  0.24657198    -0.30300
H775        H  0.10516954  0.41492028  0.24122158     0.13900
H776        H  0.02583261  0.47470409  0.26184139     0.14500
C777        C  0.99823328  0.71611106  0.19750125    -0.15100
C778        C  0.01167516  0.67829325  0.17753140    -0.30300
H779        H  0.01161526  0.72536542  0.23016233     0.13900
H780        H  0.99590897  0.66918446  0.14582710     0.14500
C781        C  0.25335175  0.46136862  0.14041010    -0.15100
C782        C  0.22234704  0.48947913  0.12531209    -0.30300
H783        H  0.25664710  0.45449985  0.17610831     0.13900
H784        H  0.21727251  0.49389377  0.08937810     0.14500
C785        C  0.19868415  0.67997975  0.10372107    -0.15100
C786        C  0.23849261  0.69573305  0.11833197    -0.30300
H787        H  0.18252375  0.69325831  0.07386064     0.13900
H788        H  0.25327888  0.68153094  0.14856849     0.14500
C789        C  0.28256470  0.63235773  0.29201071    -0.15100
C790        C  0.31190171  0.60644421  0.31510577    -0.30300
H791        H  0.28620994  0.66789949  0.29442602     0.13900
H792        H  0.31029546  0.57080564  0.31315207     0.14500
C793        C  0.33515703  0.67530019  0.50741219    -0.15100
C794        C  0.29653726  0.69438815  0.52071674    -0.30300
H795        H  0.34297325  0.64344538  0.52223798     0.13900
H796        H  0.28703102  0.72629493  0.50736507     0.14500
C797        C  0.06911789  0.72956467  0.58393407    -0.15100
C798        C  0.03001796  0.74370577  0.56544796    -0.30300
H799        H  0.07738836  0.74040519  0.61777621     0.13900
H800        H  0.02149394  0.73546480  0.53096839     0.14500
C801        C  0.29206705  0.49171692  0.61253562    -0.15100
C802        C  0.26490640  0.52374887  0.62696251    -0.30300
H803        H  0.29673566  0.48659516  0.57677210     0.13900
H804        H  0.26119620  0.52942990  0.66277581     0.14500
C805        C  0.06213154  0.54217811  0.62101946    -0.15100
C806        C  0.03789648  0.51018097  0.60006642    -0.30300
H807        H  0.05539711  0.55102941  0.65563910     0.13900
H808        H  0.04597130  0.50075962  0.56587647     0.14500
C809        C  0.15508382  0.64535989  0.38464223    -0.15100
C810        C  0.12454125  0.61856116  0.36636180    -0.30300
H811        H  0.18007320  0.66183970  0.36432316     0.13900
H812        H  0.10345460  0.59746939  0.38668413     0.14500
C813        C  0.12934415  0.48805960  0.43435958    -0.15100
C814        C  0.14731280  0.44735530  0.43185384    -0.30300
H815        H  0.09820438  0.49439689  0.41640974     0.13900
H816        H  0.17929174  0.43932036  0.44706555     0.14500
loop_ 
_geom_bond_atom_site_label_1 
_geom_bond_atom_site_label_2 
_geom_bond_distance 
_geom_bond_site_symmetry_2 
_ccdc_geom_bond_type 
Fe1          O17   2.073       .  S
Fe1           O7   2.012       .  S
Fe1          O14   2.052       .  S
Fe1           O6   2.054       .  S
Fe1          O12   1.961       .  S
Fe2           O5   2.084       .  S
Fe2           O9   2.013       .  S
Fe2          O13   2.076       .  S
Fe2          O18   2.016       .  S
Fe2          O12   1.944       .  S
Fe3          O21   2.086       .  S
Fe3           O8   2.149       .  S
Fe3          O15   2.152       .  S
Fe3           O4   2.062       .  S
Fe3          O12   1.934       .  S
O4           C11   1.265       .  A
O5           C19   1.262       .  A
O6           C11   1.265       .  A
O7           C10   1.262       .  A
O8           C20   1.296       .  A
O9           C22   1.264       .  A
C10          O15   1.290       .  A
C10         C794   1.494       .  S
C11         C802   1.472       .  S
O13          C16   1.267       .  A
O14          C16   1.258       .  A
C16         C813   1.465       .  S
O17          C22   1.276       .  A
O18          C20   1.272       .  A
C19          O21   1.267       .  A
C19         C797   1.498       .  S
C20         C805   1.482       .  S
C22         C809   1.426       .  S
Fe23         O39   2.068       .  S
Fe23         O29   2.028       .  S
Fe23         O36   2.055       .  S
Fe23         O28   2.054       .  S
Fe23         O34   1.973       .  S
Fe24         O27   2.089       .  S
Fe24         O31   2.000       .  S
Fe24         O35   2.091       .  S
Fe24         O40   2.004       .  S
Fe24         O34   1.955       .  S
Fe25         O43   2.079       .  S
Fe25         O30   2.130       .  S
Fe25         O37   2.132       .  S
Fe25         O26   2.054       .  S
Fe25         O34   1.963       .  S
O26          C33   1.264       .  A
O27          C41   1.267       .  A
O28          C33   1.267       .  A
O29          C32   1.263       .  A
O30          C42   1.285       .  A
O31          C44   1.259       .  A
C32          O37   1.283       .  A
C32         C774   1.487       .  S
C33         C782   1.467       .  S
O35          C38   1.272       .  A
O36          C38   1.259       .  A
C38         C789   1.481       .  S
O39          C44   1.275       .  A
O40          C42   1.266       .  A
C41          O43   1.267       .  A
C41         C778   1.494       .  S
C42         C785   1.478       .  S
C44         C810   1.424       .  S
Fe45         O61   2.046       .  S
Fe45         O51   2.057       .  S
Fe45         O58   2.055       .  S
Fe45         O50   2.042       .  S
Fe45         O56   1.965       .  S
Fe46         O49   2.101       .  S
Fe46         O53   2.005       .  S
Fe46         O57   2.083       .  S
Fe46         O62   2.021       .  S
Fe46         O56   1.949       .  S
Fe47         O65   2.087       .  S
Fe47         O52   2.141       .  S
Fe47         O59   2.142       .  S
Fe47         O48   2.090       .  S
Fe47         O56   1.923       .  S
O48          C55   1.272       .  A
O49          C63   1.273       .  A
O50          C55   1.266       .  A
O51          C54   1.263       .  A
O52          C64   1.288       .  A
O53          C66   1.262       .  A
C54          O59   1.286       .  A
C54         C750   1.502       .  S
C55         C757   1.472       .  S
O57          C60   1.276       .  A
O58          C60   1.263       .  A
C60         C769   1.472       .  S
O61          C66   1.268       .  A
O62          C64   1.261       .  A
C63          O65   1.273       .  A
C63         C753   1.500   1_545  S
C64         C762   1.493       .  S
C66         C765   1.429       .  S
Fe67         O83   2.045       .  S
Fe67         O73   2.057       .  S
Fe67         O80   2.066       .  S
Fe67         O72   2.043       .  S
Fe67         O78   1.965       .  S
Fe68         O71   2.099       .  S
Fe68         O75   2.010       .  S
Fe68         O79   2.079       .  S
Fe68         O84   2.022       .  S
Fe68         O78   1.943       .  S
Fe69         O87   2.072       .  S
Fe69         O74   2.123       .  S
Fe69         O81   2.132       .  S
Fe69         O70   2.080       .  S
Fe69         O78   1.931       .  S
O70          C77   1.271       .  A
O71          C85   1.271       .  A
O72          C77   1.268       .  A
O73          C76   1.262       .  A
O74          C86   1.285       .  A
O75          C88   1.264       .  A
C76          O81   1.282       .  A
C76         C729   1.498       .  S
C77         C738   1.462       .  S
O79          C82   1.273       .  A
O80          C82   1.263       .  A
C82         C745   1.475       .  S
O83          C88   1.269       .  A
O84          C86   1.265       .  A
C85          O87   1.269       .  A
C85         C733   1.494       .  S
C86         C742   1.485       .  S
C88         C766   1.427       .  S
Fe89        O105   2.058       .  S
Fe89         O95   2.022       .  S
Fe89        O102   2.057       .  S
Fe89         O94   2.055       .  S
Fe89        O100   1.965       .  S
Fe90         O93   2.101       .  S
Fe90         O97   2.015       .  S
Fe90        O101   2.115       .  S
Fe90        O106   1.986       .  S
Fe90        O100   1.950       .  S
Fe91        O109   2.082       .  S
Fe91         O96   2.159       .  S
Fe91        O103   2.151       .  S
Fe91         O92   2.074       .  S
Fe91        O100   1.943       .  S
O92          C99   1.269       .  A
O93         C107   1.265       .  A
O94          C99   1.267       .  A
O95          C98   1.264       .  A
O96         C108   1.293       .  A
O97         C110   1.255       .  A
C98         O103   1.289       .  A
C98         C705   1.495       .  S
C99         C713   1.477       .  S
O101        C104   1.279       .  A
O102        C104   1.264       .  A
C104        C725   1.486       .  S
O105        C110   1.272       .  A
O106        C108   1.264       .  A
C107        O109   1.267       .  A
C107        C709   1.492       .  S
C108        C718   1.492       .  S
C110        C721   1.429       .  S
Fe111       O127   2.051       .  S
Fe111       O117   2.035       .  S
Fe111       O124   2.063       .  S
Fe111       O116   2.056       .  S
Fe111       O122   1.979       .  S
Fe112       O115   2.095       .  S
Fe112       O119   2.010       .  S
Fe112       O123   2.086       .  S
Fe112       O128   2.007       .  S
Fe112       O122   1.955       .  S
Fe113       O131   2.065       .  S
Fe113       O118   2.142       .  S
Fe113       O125   2.137       .  S
Fe113       O114   2.063       .  S
Fe113       O122   1.952       .  S
O114        C121   1.263       .  A
O115        C129   1.265       .  A
O116        C121   1.265       .  A
O117        C120   1.268       .  A
O118        C130   1.291       .  A
O119        C132   1.263       .  A
C120        O125   1.287       .  A
C120        C685   1.496       .  S
C121        C694   1.477       .  S
O123        C126   1.272       .  A
O124        C126   1.264       .  A
C126        C701   1.477       .  S
O127        C132   1.268       .  A
O128        C130   1.269       .  A
C129        O131   1.263       .  A
C129        C690   1.496       .  S
C130        C697   1.486       .  S
C132        C722   1.426       .  S
Fe133       O149   2.049       .  S
Fe133       O139   2.056       .  S
Fe133       O146   2.065       .  S
Fe133       O138   2.038       .  S
Fe133       O144   1.960       .  S
Fe134       O137   2.099       .  S
Fe134       O141   2.017       .  S
Fe134       O145   2.081       .  S
Fe134       O150   2.029       .  S
Fe134       O144   1.937       .  S
Fe135       O153   2.074       .  S
Fe135       O140   2.120       .  S
Fe135       O147   2.128       .  S
Fe135       O136   2.086       .  S
Fe135       O144   1.929       .  S
O136        C143   1.273       .  A
O137        C151   1.271       .  A
O138        C143   1.268       .  A
O139        C142   1.261       .  A
O140        C152   1.284       .  A
O141        C154   1.266       .  A
C142        O147   1.279       .  A
C142        C665   1.497       .  S
C143        C673   1.464       .  S
O145        C148   1.274       .  A
O146        C148   1.264       .  A
C148        C741   1.476   1_565  S
O149        C154   1.270       .  A
O150        C152   1.267       .  A
C151        O153   1.270       .  A
C151        C669   1.494       .  S
C152        C677   1.489       .  S
C154        C681   1.434       .  S
Fe155       O171   2.043       .  S
Fe155       O161   2.054       .  S
Fe155       O168   2.062       .  S
Fe155       O160   2.028       .  S
Fe155       O166   1.968       .  S
Fe156       O159   2.103       .  S
Fe156       O163   2.019       .  S
Fe156       O167   2.083       .  S
Fe156       O172   2.023       .  S
Fe156       O166   1.946       .  S
Fe157       O175   2.074       .  S
Fe157       O162   2.138       .  S
Fe157       O169   2.129       .  S
Fe157       O158   2.098       .  S
Fe157       O166   1.946       .  S
O158        C165   1.276       .  A
O159        C173   1.274       .  A
O160        C165   1.267       .  A
O161        C164   1.262       .  A
O162        C174   1.285       .  A
O163        C176   1.263       .  A
C164        O169   1.278       .  A
C164        C734   1.501   1_565  S
C165        C654   1.469       .  S
O167        C170   1.274       .  A
O168        C170   1.262       .  A
C170        C661   1.478       .  S
O171        C176   1.267       .  A
O172        C174   1.265       .  A
C173        O175   1.270       .  A
C173        C649   1.496       .  S
C174        C657   1.503       .  S
C176        C682   1.432       .  S
Fe177       O193   2.047       .  S
Fe177       O183   2.060   1_554  S
Fe177       O190   2.074       .  S
Fe177       O182   2.037       .  S
Fe177       O188   1.960       .  S
Fe178       O181   2.075       .  S
Fe178       O185   2.016       .  S
Fe178       O189   2.066       .  S
Fe178       O194   2.017       .  S
Fe178       O188   1.920       .  S
Fe179       O197   2.130       .  S
Fe179       O184   2.135       .  S
Fe179       O191   2.141       .  S
Fe179       O180   2.129       .  S
Fe179       O188   1.934       .  S
O180        C187   1.283       .  A
O181        C195   1.271       .  A
O182        C187   1.269       .  A
O183        C186   1.263   1_556  A
O184        C196   1.287       .  A
O185        C198   1.266       .  A
C186        O191   1.283       .  A
C186        C630   1.509   1_554  S
C187        C637   1.488   1_554  S
O189        C192   1.269       .  A
O190        C192   1.265       .  A
C192        C786   1.468       .  S
O193        C198   1.269       .  A
O194        C196   1.262       .  A
C195        O197   1.279       .  A
C195        C634   1.505       .  S
C196        C642   1.491       .  S
C198        C645   1.445       .  S
Fe199       O215   2.054   1_655  S
Fe199       O205   2.035       .  S
Fe199       O212   2.046       .  S
Fe199       O204   2.042       .  S
Fe199       O210   1.966       .  S
Fe200       O203   2.097       .  S
Fe200       O207   2.019   1_655  S
Fe200       O211   2.100   1_655  S
Fe200       O216   1.996       .  S
Fe200       O210   1.955       .  S
Fe201       O219   2.068       .  S
Fe201       O206   2.142       .  S
Fe201       O213   2.146       .  S
Fe201       O202   2.064       .  S
Fe201       O210   1.946       .  S
O202        C209   1.261       .  A
O203        C217   1.265       .  A
O204        C209   1.261       .  A
O205        C208   1.270       .  A
O206        C218   1.293       .  A
O207        C220   1.261       .  A
C208        O213   1.293       .  A
C208        C777   1.493       .  S
C209        C617   1.478       .  S
O211        C214   1.276       .  A
O212        C214   1.262   1_655  A
C214        C625   1.472   1_554  S
O215        C220   1.269       .  A
O216        C218   1.268       .  A
C217        O219   1.264       .  A
C217        C613   1.499       .  S
C218        C621   1.483       .  S
C220        C646   1.432       .  S
Fe221       O237   2.058       .  S
Fe221       O227   2.026       .  S
Fe221       O234   2.051       .  S
Fe221       O226   2.072   1_565  S
Fe221       O232   1.968   1_565  S
Fe222       O225   2.087   1_565  S
Fe222       O229   2.007       .  S
Fe222       O233   2.099       .  S
Fe222       O238   1.988   1_565  S
Fe222       O232   1.943   1_565  S
Fe223       O241   2.091       .  S
Fe223       O228   2.161       .  S
Fe223       O235   2.171       .  S
Fe223       O224   2.053       .  S
Fe223       O232   1.938       .  S
O224        C231   1.263       .  A
O225        C239   1.265       .  A
O226        C231   1.268       .  A
O227        C230   1.264   1_565  A
O228        C240   1.294       .  A
O229        C242   1.254       .  A
C230        O235   1.296       .  A
C230        C633   1.498   1_545  S
C231        C693   1.475       .  S
O233        C236   1.276       .  A
O234        C236   1.265       .  A
C236        C678   1.471       .  S
O237        C242   1.269       .  A
O238        C240   1.264       .  A
C239        O241   1.271       .  A
C239        C749   1.501       .  S
C240        C746   1.491       .  S
C242        C609   1.423       .  S
Fe243       O259   2.049       .  S
Fe243       O249   2.061       .  S
Fe243       O256   2.067       .  S
Fe243       O248   2.045       .  S
Fe243       O254   1.964       .  S
Fe244       O247   2.095       .  S
Fe244       O251   1.996       .  S
Fe244       O255   2.088       .  S
Fe244       O260   2.031       .  S
Fe244       O254   1.939       .  S
Fe245       O263   2.089       .  S
Fe245       O250   2.131       .  S
Fe245       O257   2.130       .  S
Fe245       O246   2.092       .  S
Fe245       O254   1.927       .  S
O246        C253   1.273       .  A
O247        C261   1.270       .  A
O248        C253   1.266       .  A
O249        C252   1.266       .  A
O250        C262   1.285       .  A
O251        C264   1.262       .  A
C252        O257   1.283       .  A
C252        C670   1.501       .  S
C253        C714   1.473       .  S
O255        C258   1.277       .  A
O256        C258   1.265       .  A
C258        C641   1.480       .  S
O259        C264   1.268       .  A
O260        C262   1.264       .  A
C261        O263   1.272       .  A
C261        C793   1.498       .  S
C262        C790   1.492       .  S
C264        C610   1.441       .  S
Fe265       O281   2.078       .  S
Fe265       O271   2.020       .  S
Fe265       O278   2.045       .  S
Fe265       O270   2.084       .  S
Fe265       O276   1.981       .  S
Fe266       O269   2.082       .  S
Fe266       O273   2.006       .  S
Fe266       O277   2.096       .  S
Fe266       O282   1.997       .  S
Fe266       O276   1.944       .  S
Fe267       O285   2.085       .  S
Fe267       O272   2.154       .  S
Fe267       O279   2.150       .  S
Fe267       O268   2.058       .  S
Fe267       O276   1.942       .  S
O268        C275   1.266       .  A
O269        C283   1.264       .  A
O270        C275   1.269       .  A
O271        C274   1.265       .  A
O272        C284   1.291       .  A
O273        C286   1.250       .  A
C274        O279   1.290       .  A
C274        C650   1.486       .  S
C275        C638   1.480       .  S
O277        C280   1.276       .  A
O278        C280   1.262       .  A
C280        C717   1.469   1_556  S
O281        C286   1.272       .  A
O282        C284   1.264       .  A
C283        O285   1.268       .  A
C283        C597   1.495       .  S
C284        C602   1.491       .  S
C286        C605   1.432       .  S
Fe287       O303   2.078       .  S
Fe287       O293   2.065   1_556  S
Fe287       O300   2.090       .  S
Fe287       O292   2.081   1_556  S
Fe287       O298   1.977       .  S
Fe288       O291   2.094       .  S
Fe288       O295   2.013       .  S
Fe288       O299   2.088       .  S
Fe288       O304   2.024       .  S
Fe288       O298   1.937       .  S
Fe289       O307   2.090       .  S
Fe289       O294   2.124       .  S
Fe289       O301   2.114       .  S
Fe289       O290   2.044       .  S
Fe289       O298   1.926       .  S
O290        C297   1.265       .  A
O291        C305   1.266       .  A
O292        C297   1.272   1_554  A
O293        C296   1.267       .  A
O294        C306   1.286       .  A
O295        C308   1.259       .  A
C296        O301   1.286   1_554  A
C296        C710   1.486       .  S
C297        C618   1.470   1_556  S
O299        C302   1.271       .  A
O300        C302   1.268       .  A
C302        C658   1.487       .  S
O303        C308   1.275       .  A
O304        C306   1.269       .  A
C305        O307   1.270       .  A
C305        C590   1.501       .  S
C306        C593   1.477       .  S
C308        C606   1.429       .  S
Fe309       O325   2.040   1_554  S
Fe309       O315   2.063       .  S
Fe309       O322   2.071   1_554  S
Fe309       O314   2.044       .  S
Fe309       O320   1.964       .  S
Fe310       O313   2.099       .  S
Fe310       O317   2.008   1_554  S
Fe310       O321   2.081       .  S
Fe310       O326   2.032       .  S
Fe310       O320   1.939       .  S
Fe311       O329   2.068       .  S
Fe311       O316   2.140       .  S
Fe311       O323   2.137       .  S
Fe311       O312   2.072       .  S
Fe311       O320   1.924       .  S
O312        C319   1.267       .  A
O313        C327   1.271       .  A
O314        C319   1.266       .  A
O315        C318   1.267       .  A
O316        C328   1.289       .  A
O317        C330   1.265       .  A
C318        O323   1.285       .  A
C318        C582   1.506       .  S
C319        C781   1.463       .  S
O321        C324   1.275   1_554  A
O322        C324   1.266       .  A
C324        C601   1.477       .  S
O325        C330   1.266       .  A
O326        C328   1.265       .  A
C327        O329   1.267       .  A
C327        C686   1.493       .  S
C328        C726   1.501       .  S
C330        C585   1.438       .  S
Fe331       O347   2.057       .  S
Fe331       O337   2.023       .  S
Fe331       O344   2.042       .  S
Fe331       O336   2.047       .  S
Fe331       O342   1.969       .  S
Fe332       O335   2.083       .  S
Fe332       O339   2.004       .  S
Fe332       O343   2.098       .  S
Fe332       O348   1.987       .  S
Fe332       O342   1.949       .  S
Fe333       O351   2.078       .  S
Fe333       O338   2.154       .  S
Fe333       O345   2.156       .  S
Fe333       O334   2.064       .  S
Fe333       O342   1.940       .  S
O334        C341   1.263       .  A
O335        C349   1.263       .  A
O336        C341   1.262       .  A
O337        C340   1.267       .  A
O338        C350   1.294       .  A
O339        C352   1.252       .  A
C340        O345   1.294       .  A
C340        C598   1.491       .  S
C341        C801   1.474       .  S
O343        C346   1.276       .  A
O344        C346   1.262       .  A
C346        C577   1.467       .  S
O347        C352   1.268       .  A
O348        C350   1.264       .  A
C349        O351   1.267       .  A
C349        C730   1.495       .  S
C350        C770   1.486       .  S
C352        C586   1.422       .  S
Fe353       O369   2.047       .  S
Fe353       O359   2.056       .  S
Fe353       O366   2.068       .  S
Fe353       O358   2.037       .  S
Fe353       O364   1.958       .  S
Fe354       O357   2.097       .  S
Fe354       O361   2.009       .  S
Fe354       O365   2.093       .  S
Fe354       O370   2.022       .  S
Fe354       O364   1.943       .  S
Fe355       O373   2.085       .  S
Fe355       O360   2.118       .  S
Fe355       O367   2.131       .  S
Fe355       O356   2.099       .  S
Fe355       O364   1.932       .  S
O356        C363   1.277       .  A
O357        C371   1.270       .  A
O358        C363   1.265       .  A
O359        C362   1.262       .  A
O360        C372   1.283       .  A
O361        C374   1.265       .  A
C362        O367   1.280       .  A
C362        C565   1.499   1_455  S
C363        C569   1.469   1_455  S
O365        C368   1.276       .  A
O366        C368   1.264       .  A
C368        C761   1.485       .  S
O369        C374   1.269       .  A
O370        C372   1.267       .  A
C371        O373   1.272       .  A
C371        C581   1.498       .  S
C372        C578   1.483       .  S
C374        C574   1.431       .  S
Fe375       O391   2.041   1_565  S
Fe375       O381   2.054       .  S
Fe375       O388   2.067   1_565  S
Fe375       O380   2.041       .  S
Fe375       O386   1.945       .  S
Fe376       O379   2.092       .  S
Fe376       O383   2.010   1_565  S
Fe376       O387   2.097       .  S
Fe376       O392   2.021       .  S
Fe376       O386   1.955       .  S
Fe377       O395   2.109       .  S
Fe377       O382   2.128       .  S
Fe377       O389   2.137       .  S
Fe377       O378   2.091       .  S
Fe377       O386   1.931       .  S
O378        C385   1.273       .  A
O379        C393   1.275       .  A
O380        C385   1.264       .  A
O381        C384   1.268       .  A
O382        C394   1.277       .  A
O383        C396   1.260       .  A
C384        O389   1.286       .  A
C384        C754   1.501       .  S
C385        C557   1.471       .  S
O387        C390   1.280   1_565  A
O388        C390   1.267       .  A
C390        C561   1.483   1_455  S
O391        C396   1.265       .  A
O392        C394   1.255       .  A
C393        O395   1.280       .  A
C393        C629   1.500       .  S
C394        C626   1.485       .  S
C396        C573   1.427       .  S
Fe397       O413   2.039       .  S
Fe397       O403   2.059       .  S
Fe397       O410   2.061       .  S
Fe397       O402   2.055       .  S
Fe397       O408   1.942       .  S
Fe398       O401   2.077       .  S
Fe398       O405   2.010       .  S
Fe398       O409   2.071       .  S
Fe398       O414   2.029       .  S
Fe398       O408   1.966       .  S
Fe399       O417   2.108       .  S
Fe399       O404   2.125       .  S
Fe399       O411   2.131       .  S
Fe399       O400   2.079       .  S
Fe399       O408   1.933       .  S
O400        C407   1.272       .  A
O401        C415   1.272       .  A
O402        C407   1.266       .  A
O403        C406   1.268       .  A
O404        C416   1.277       .  A
O405        C418   1.253       .  A
C406        O411   1.286       .  A
C406        C798   1.498   1_655  S
C407        C558   1.475   1_655  S
O409        C412   1.273       .  A
O410        C412   1.269       .  A
C412        C594   1.474       .  S
O413        C418   1.270       .  A
O414        C416   1.256       .  A
C415        O417   1.280       .  A
C415        C666   1.491       .  S
C416        C662   1.482       .  S
C418        C553   1.431       .  S
Fe419       O435   2.049       .  S
Fe419       O425   2.052       .  S
Fe419       O432   2.059       .  S
Fe419       O424   2.058       .  S
Fe419       O430   1.943       .  S
Fe420       O423   2.087       .  S
Fe420       O427   2.005       .  S
Fe420       O431   2.094       .  S
Fe420       O436   2.018       .  S
Fe420       O430   1.965       .  S
Fe421       O439   2.121       .  S
Fe421       O426   2.143       .  S
Fe421       O433   2.143       .  S
Fe421       O422   2.069       .  S
Fe421       O430   1.935       .  S
O422        C429   1.271       .  A
O423        C437   1.278       .  A
O424        C429   1.267       .  A
O425        C428   1.267       .  A
O426        C438   1.273       .  A
O427        C440   1.250       .  A
C428        O433   1.289       .  A
C428        C589   1.501       .  S
C429        C570   1.472       .  S
O431        C434   1.281       .  A
O432        C434   1.269       .  A
C434        C806   1.478   1_655  S
O435        C440   1.270       .  A
O436        C438   1.247       .  A
C437        O439   1.286       .  A
C437        C545   1.499       .  S
C438        C550   1.491       .  S
C440        C554   1.427       .  S
Fe441       O457   2.064   1_455  S
Fe441       O447   2.033       .  S
Fe441       O454   2.062       .  S
Fe441       O446   2.054       .  S
Fe441       O452   1.965       .  S
Fe442       O445   2.086       .  S
Fe442       O449   2.009   1_455  S
Fe442       O453   2.094   1_455  S
Fe442       O458   1.993       .  S
Fe442       O452   1.939       .  S
Fe443       O461   2.076       .  S
Fe443       O448   2.137       .  S
Fe443       O455   2.132       .  S
Fe443       O444   2.067       .  S
Fe443       O452   1.952       .  S
O444        C451   1.267       .  A
O445        C459   1.267       .  A
O446        C451   1.266       .  A
O447        C450   1.268       .  A
O448        C460   1.287       .  A
O449        C462   1.255       .  A
C450        O455   1.285       .  A
C450        C537   1.485       .  S
C451        C758   1.474       .  S
O453        C456   1.275       .  A
O454        C456   1.264   1_455  A
C456        C549   1.477       .  S
O457        C462   1.271       .  A
O458        C460   1.265       .  A
C459        O461   1.267       .  A
C459        C773   1.492       .  S
C460        C814   1.480       .  S
C462        C542   1.429       .  S
Fe463       O479   2.048       .  S
Fe463       O469   2.063       .  S
Fe463       O476   2.066       .  S
Fe463       O468   2.038       .  S
Fe463       O474   1.965       .  S
Fe464       O467   2.100       .  S
Fe464       O471   2.014       .  S
Fe464       O475   2.084       .  S
Fe464       O480   2.032       .  S
Fe464       O474   1.936       .  S
Fe465       O483   2.076       .  S
Fe465       O470   2.127       .  S
Fe465       O477   2.135       .  S
Fe465       O466   2.086       .  S
Fe465       O474   1.933       .  S
O466        C473   1.272       .  A
O467        C481   1.270       .  A
O468        C473   1.266       .  A
O469        C472   1.264       .  A
O470        C482   1.287       .  A
O471        C484   1.267       .  A
C472        O477   1.282       .  A
C472        C546   1.504       .  S
C473        C737   1.466       .  S
O475        C478   1.274       .  A
O476        C478   1.264       .  A
C478        C533   1.481       .  S
O479        C484   1.270       .  A
O480        C482   1.269       .  A
C481        O483   1.268       .  A
C481        C706   1.497       .  S
C482        C702   1.494       .  S
C484        C541   1.444       .  S
Fe485       O501   2.042       .  S
Fe485       O491   2.066   1_545  S
Fe485       O498   2.073       .  S
Fe485       O490   2.040       .  S
Fe485       O496   1.960       .  S
Fe486       O489   2.089       .  S
Fe486       O493   2.006       .  S
Fe486       O497   2.074       .  S
Fe486       O502   2.025       .  S
Fe486       O496   1.941       .  S
Fe487       O505   2.072       .  S
Fe487       O492   2.128       .  S
Fe487       O499   2.131       .  S
Fe487       O488   2.079       .  S
Fe487       O496   1.927       .  S
O488        C495   1.271       .  A
O489        C503   1.272       .  A
O490        C495   1.267       .  A
O491        C494   1.266       .  A
O492        C504   1.284       .  A
O493        C506   1.262       .  A
C494        O499   1.282   1_565  A
C494        C614   1.501       .  S
C495        C674   1.463   1_545  S
O497        C500   1.273       .  A
O498        C500   1.266       .  A
C500        C698   1.474       .  S
O501        C506   1.267       .  A
O502        C504   1.263       .  A
C503        O505   1.269       .  A
C503        C538   1.488   1_655  S
C504        C534   1.488       .  S
C506        C529   1.428       .  S
Fe507       O523   2.042   1_556  S
Fe507       O513   2.056       .  S
Fe507       O520   2.062   1_556  S
Fe507       O512   2.039       .  S
Fe507       O518   1.962       .  S
Fe508       O511   2.095       .  S
Fe508       O515   2.006   1_556  S
Fe508       O519   2.072   1_556  S
Fe508       O524   2.021       .  S
Fe508       O518   1.943       .  S
Fe509       O527   2.078       .  S
Fe509       O514   2.131       .  S
Fe509       O521   2.135       .  S
Fe509       O510   2.087       .  S
Fe509       O518   1.922       .  S
O510        C517   1.273       .  A
O511        C525   1.271       .  A
O512        C517   1.266       .  A
O513        C516   1.263       .  A
O514        C526   1.286       .  A
O515        C528   1.263       .  A
C516        O521   1.282       .  A
C516        C689   1.499       .  S
C517        C653   1.464       .  S
O519        C522   1.272       .  A
O520        C522   1.263       .  A
C522        C622   1.468   1_545  S
O523        C528   1.268       .  A
O524        C526   1.263       .  A
C525        O527   1.271       .  A
C525        C566   1.493       .  S
C526        C562   1.486       .  S
C528        C530   1.427       .  S
C529        C530   1.344       .  D
C529        H531   1.089       .  S
C530        H532   1.088       .  S
C533        C534   1.362       .  D
C533        H535   1.088       .  S
C534        H536   1.085       .  S
C537        C538   1.349       .  D
C537        H539   1.085   1_455  S
C538        H540   1.089       .  S
C541        C542   1.341       .  D
C541        H543   1.088       .  S
C542        H544   1.086       .  S
C545        C546   1.361       .  D
C545        H547   1.087       .  S
C546        H548   1.085       .  S
C549        C550   1.360       .  D
C549        H551   1.085       .  S
C550        H552   1.085       .  S
C553        C554   1.313       .  D
C553        H555   1.088       .  S
C554        H556   1.088       .  S
C557        C558   1.341       .  D
C557        H559   1.087       .  S
C558        H560   1.087       .  S
C561        C562   1.365       .  D
C561        H563   1.087       .  S
C562        H564   1.085       .  S
C565        C566   1.357       .  D
C565        H567   1.085       .  S
C566        H568   1.088       .  S
C569        C570   1.341       .  D
C569        H571   1.088       .  S
C570        H572   1.087   1_655  S
C573        C574   1.340       .  D
C573        H575   1.089       .  S
C574        H576   1.088       .  S
C577        C578   1.357       .  D
C577        H579   1.088       .  S
C578        H580   1.086       .  S
C581        C582   1.362   1_556  D
C581        H583   1.087   1_556  S
C582        H584   1.085       .  S
C585        C586   1.338       .  D
C585        H587   1.089       .  S
C586        H588   1.087       .  S
C589        C590   1.363       .  D
C589        H591   1.085       .  S
C590        H592   1.087       .  S
C593        C594   1.353       .  D
C593        H595   1.086       .  S
C594        H596   1.087       .  S
C597        C598   1.360       .  D
C597        H599   1.088       .  S
C598        H600   1.085       .  S
C601        C602   1.362       .  D
C601        H603   1.087       .  S
C602        H604   1.086       .  S
C605        C606   1.342       .  D
C605        H607   1.086       .  S
C606        H608   1.083       .  S
C609        C610   1.343       .  D
C609        H611   1.087       .  S
C610        H612   1.088       .  S
C613        C614   1.359       .  D
C613        H615   1.087       .  S
C614        H616   1.085       .  S
C617        C618   1.342       .  D
C617        H619   1.086       .  S
C618        H620   1.087       .  S
C621        C622   1.360       .  D
C621        H623   1.085       .  S
C622        H624   1.088       .  S
C625        C626   1.359       .  D
C625        H627   1.087       .  S
C626        H628   1.086       .  S
C629        C630   1.364       .  D
C629        H631   1.087       .  S
C630        H632   1.085       .  S
C633        C634   1.358       .  D
C633        H635   1.085   1_565  S
C634        H636   1.087       .  S
C637        C638   1.350       .  D
C637        H639   1.086       .  S
C638        H640   1.087       .  S
C641        C642   1.366       .  D
C641        H643   1.088       .  S
C642        H644   1.086       .  S
C645        C646   1.342       .  D
C645        H647   1.087       .  S
C646        H648   1.087       .  S
C649        C650   1.352       .  D
C649        H651   1.089       .  S
C650        H652   1.086       .  S
C653        C654   1.344   1_545  D
C653        H655   1.088       .  S
C654        H656   1.087       .  S
C657        C658   1.362       .  D
C657        H659   1.086       .  S
C658        H660   1.088       .  S
C661        C662   1.358       .  D
C661        H663   1.078       .  S
C662        H664   1.085       .  S
C665        C666   1.359       .  D
C665        H667   1.086       .  S
C666        H668   1.087       .  S
C669        C670   1.358       .  D
C669        H671   1.088       .  S
C670        H672   1.085       .  S
C673        C674   1.339       .  D
C673        H675   1.087       .  S
C674        H676   1.087       .  S
C677        C678   1.359       .  D
C677        H679   1.086       .  S
C678        H680   1.088       .  S
C681        C682   1.343       .  D
C681        H683   1.088       .  S
C682        H684   1.088       .  S
C685        C686   1.354       .  D
C685        H687   1.086       .  S
C686        H688   1.089       .  S
C689        C690   1.359   1_556  D
C689        H691   1.085   1_556  S
C690        H692   1.087   1_554  S
C693        C694   1.343       .  D
C693        H695   1.087       .  S
C694        H696   1.086       .  S
C697        C698   1.359       .  D
C697        H699   1.086       .  S
C698        H700   1.088       .  S
C701        C702   1.361       .  D
C701        H703   1.087       .  S
C702        H704   1.085       .  S
C705        C706   1.357       .  D
C705        H707   1.086       .  S
C706        H708   1.089       .  S
C709        C710   1.361       .  D
C709        H711   1.087       .  S
C710        H712   1.088       .  S
C713        C714   1.347       .  D
C713        H715   1.087       .  S
C714        H716   1.087       .  S
C717        C718   1.362       .  D
C717        H719   1.086       .  S
C718        H720   1.085       .  S
C721        C722   1.336       .  D
C721        H723   1.087       .  S
C722        H724   1.088       .  S
C725        C726   1.367       .  D
C725        H727   1.087       .  S
C726        H728   1.086       .  S
C729        C730   1.360       .  D
C729        H731   1.085       .  S
C730        H732   1.087       .  S
C733        C734   1.357       .  D
C733        H735   1.088       .  S
C734        H736   1.085       .  S
C737        C738   1.340       .  D
C737        H739   1.087       .  S
C738        H740   1.087       .  S
C741        C742   1.361       .  D
C741        H743   1.088       .  S
C742        H744   1.085       .  S
C745        C746   1.364       .  D
C745        H747   1.087       .  S
C746        H748   1.086       .  S
C749        C750   1.364       .  D
C749        H751   1.087       .  S
C750        H752   1.085       .  S
C753        C754   1.359       .  D
C753        H755   1.089       .  S
C754        H756   1.086       .  S
C757        C758   1.345       .  D
C757        H759   1.087       .  S
C758        H760   1.087       .  S
C761        C762   1.367       .  D
C761        H763   1.088       .  S
C762        H764   1.085       .  S
C765        C766   1.344       .  D
C765        H767   1.089       .  S
C766        H768   1.088       .  S
C769        C770   1.364       .  D
C769        H771   1.088       .  S
C770        H772   1.086       .  S
C773        C774   1.355       .  D
C773        H775   1.087       .  S
C774        H776   1.085       .  S
C777        C778   1.359   1_655  D
C777        H779   1.086   1_655  S
C778        H780   1.087   1_455  S
C781        C782   1.338       .  D
C781        H783   1.086       .  S
C782        H784   1.087       .  S
C785        C786   1.353       .  D
C785        H787   1.086       .  S
C786        H788   1.089       .  S
C789        C790   1.363       .  D
C789        H791   1.088       .  S
C790        H792   1.086       .  S
C793        C794   1.360       .  D
C793        H795   1.088       .  S
C794        H796   1.085       .  S
C797        C798   1.361       .  D
C797        H799   1.087       .  S
C798        H800   1.085       .  S
C801        C802   1.345       .  D
C801        H803   1.087       .  S
C802        H804   1.087       .  S
C805        C806   1.361       .  D
C805        H807   1.087       .  S
C806        H808   1.088       .  S
C809        C810   1.337       .  D
C809        H811   1.089       .  S
C810        H812   1.087       .  S
C813        C814   1.353       .  D
C813        H815   1.089       .  S
C814        H816   1.085       .  S
