geometry optimzed in LAMMPS
_audit_creation_date              2020-12-01 
_audit_creation_method            'lammps2cif' 
_symmetry_space_group_name_H-M    'P1' 
_symmetry_Int_Tables_number       1 
_symmetry_cell_setting            triclinic 
loop_ 
_symmetry_equiv_pos_as_xyz 
  x,y,z 
_cell_length_a                    27.27520926 
_cell_length_b                    27.318212077059215 
_cell_length_c                    65.77931748610126 
_cell_angle_alpha                 89.95518045805942 
_cell_angle_beta                  90.04155644179251 
_cell_angle_gamma                 120.10753628494534 
loop_ 
_atom_site_label 
_atom_site_type_symbol 
_atom_site_fract_x 
_atom_site_fract_y 
_atom_site_fract_z 
_atom_site_charge 
Zn1        Zn  0.12569776  0.25379189  0.38767035     1.49700
Zn2        Zn  0.16641966  0.33301946  0.34980288     1.49400
Zn3        Zn  0.12679082  0.37296421  0.38765568     1.49100
Zn4        Zn  0.24486375  0.37277605  0.38831717     1.49500
O5          O  0.16600045  0.33306633  0.37896560    -1.81800
O6          O  0.09721877  0.19940723  0.36360545    -0.72400
O7          O  0.12763937  0.36845212  0.33783685    -0.72200
O8          O  0.05925475  0.32128018  0.40467563    -0.71700
O9          O  0.13072909  0.25880886  0.33765563    -0.72400
O10         O  0.05780407  0.23885071  0.40459419    -0.72000
O11         O  0.09803126  0.39841985  0.36373501    -0.72600
O12         O  0.26027879  0.44095023  0.40526586    -0.72000
O13         O  0.24116287  0.37240759  0.33845889    -0.72700
O14         O  0.17917819  0.44216397  0.40407888    -0.72100
O15         O  0.30036946  0.40115432  0.36455734    -0.72600
O16         O  0.25973211  0.31950764  0.40501699    -0.72500
O17         O  0.17811855  0.23727947  0.40435293    -0.72300
C18         C  0.10371585  0.20910922  0.34457189     0.79500
C19         C  0.10233087  0.39285081  0.34472777     0.80000
C20         C  0.03699641  0.26956277  0.40981671     0.79000
C21         C  0.23049025  0.46337985  0.40976035     0.79300
C22         C  0.29083670  0.39726443  0.34549827     0.80500
C23         C  0.22969169  0.26748401  0.40981682     0.79500
Zn24       Zn  0.04015757  0.46012571  0.25266256     1.49700
Zn25       Zn  0.03733563  0.07822603  0.25257768     1.49400
Zn26       Zn  0.41917743  0.46136075  0.25301278     1.49100
Zn27       Zn  0.00147580  0.50022660  0.29101590     1.49500
O28         O  0.00081526  0.49976760  0.26178155    -1.81800
O29         O  0.10595452  0.01197303  0.23649569    -0.72400
O30         O  0.48810978  0.09585444  0.23636584    -0.72200
O31         O  0.40351806  0.39259548  0.23628095    -0.71700
O32         O  0.10601649  0.09367689  0.23610947    -0.72400
O33         O  0.48568529  0.39331990  0.23635695    -0.72000
O34         O  0.40541218  0.01483055  0.23658705    -0.72600
O35         O  0.42389995  0.46351761  0.30299718    -0.72000
O36         O  0.06458474  0.13388632  0.27620789    -0.72700
O37         O  0.36432123  0.43467402  0.27698629    -0.72100
O38         O  0.03482978  0.07514273  0.30239275    -0.72600
O39         O  0.03788486  0.46171925  0.30246534    -0.72500
O40         O  0.06576977  0.43063557  0.27637658    -0.72300
C41         C  0.12792205  0.06366731  0.23130400     0.79500
C42         C  0.43600796  0.06657808  0.23150647     0.80000
C43         C  0.43389017  0.37124316  0.23117122     0.79000
C44         C  0.37413503  0.43938889  0.29603649     0.79300
C45         C  0.05973276  0.12470557  0.29527948     0.80500
C46         C  0.06119410  0.43548556  0.29542098     0.79500
C47         C  0.16543872  0.33507463  0.80678381     0.47800
H48         H  0.16587366  0.33553892  0.82366787    -0.01200
C49         C  0.16393422  0.33398287  0.76707947     0.47900
H50         H  0.16333748  0.33363717  0.75017185    -0.01200
C51         C  0.13527028  0.36496465  0.79732449    -0.14900
C52         C  0.22536152  0.36419421  0.79698344    -0.14600
C53         C  0.13400884  0.27458799  0.79749622    -0.15000
C54         C  0.13482628  0.36396154  0.77651853    -0.15000
C55         C  0.22365714  0.36355970  0.77611636    -0.14600
C56         C  0.13434526  0.27494346  0.77661149    -0.14900
C57         C  0.49935237  0.50077517  0.83219070     0.47800
H58         H  0.49970068  0.50105148  0.81530398    -0.01200
C59         C  0.49909288  0.50044525  0.87190297     0.47900
H60         H  0.49887198  0.50017503  0.88880521    -0.01200
C61         C  0.02932045  0.06190866  0.84246659    -0.14900
C62         C  0.43903813  0.47092147  0.84157298    -0.14600
C63         C  0.02852514  0.47137247  0.84111760    -0.15000
C64         C  0.02779135  0.06041322  0.86332299    -0.15000
C65         C  0.43956262  0.47026123  0.86244169    -0.14600
C66         C  0.02906166  0.47167025  0.86194374    -0.14900
C67         C  0.16792275  0.33382402  0.53894744     0.47800
H68         H  0.16802168  0.33349633  0.55585277    -0.01200
C69         C  0.16766255  0.33443235  0.49922162     0.47900
H70         H  0.16751772  0.33474180  0.48233442    -0.01200
C71         C  0.19690514  0.39323534  0.52970757    -0.14900
C72         C  0.19815627  0.30499237  0.52941967    -0.14600
C73         C  0.10846650  0.30399563  0.52961373    -0.15000
C74         C  0.19688960  0.39433409  0.50886005    -0.15000
C75         C  0.19834563  0.30498442  0.50859177    -0.14600
C76         C  0.10768391  0.30418869  0.50876746    -0.14900
C77         C  0.33348302  0.16798006  0.43444428     0.47800
H78         H  0.33395140  0.16889652  0.41753817    -0.01200
C79         C  0.33233204  0.16601225  0.47415310     0.47900
H80         H  0.33166921  0.16501181  0.49103574    -0.01200
C81         C  0.30304867  0.19649652  0.44393596    -0.14900
C82         C  0.30383249  0.10836634  0.44335890    -0.14600
C83         C  0.39253533  0.19718610  0.44406224    -0.15000
C84         C  0.30230458  0.19608728  0.46475086    -0.15000
C85         C  0.30313992  0.10641356  0.46419597    -0.14600
C86         C  0.39275046  0.19641683  0.46494698    -0.14900
Zn87       Zn  0.37235767  0.24314466  0.58563289     1.49700
Zn88       Zn  0.37137457  0.12413911  0.58632347     1.49400
Zn89       Zn  0.33053803  0.16438517  0.62375686     1.49100
Zn90       Zn  0.25329947  0.12512039  0.58483755     1.49500
O91         O  0.33187294  0.16419997  0.59457444    -1.81800
O92         O  0.44100512  0.25780534  0.56935107    -0.72400
O93         O  0.39636659  0.09598681  0.61051957    -0.72200
O94         O  0.36693059  0.23909168  0.63574063    -0.71700
O95         O  0.44131117  0.17628920  0.57032300    -0.72400
O96         O  0.40003212  0.29783623  0.60957794    -0.72000
O97         O  0.36770010  0.12759136  0.63621527    -0.72600
O98         O  0.19662711  0.09508540  0.60822856    -0.72000
O99         O  0.32021332  0.05675416  0.56901871    -0.72700
O100        O  0.25494603  0.12561379  0.63457846    -0.72100
O101        O  0.23931748  0.05842172  0.56755682    -0.72600
O102        O  0.23834817  0.17870354  0.56822134    -0.72500
O103        O  0.32080815  0.25996838  0.56848738    -0.72300
C104        C  0.46316259  0.22778367  0.56491289     0.79500
C105        C  0.39181745  0.10180853  0.62949134     0.80000
C106        C  0.39368151  0.28865447  0.62864449     0.79000
C107        C  0.20547036  0.09976788  0.62732749     0.79300
C108        C  0.26927898  0.03627255  0.56300033     0.80500
C109        C  0.26901307  0.23049768  0.56320004     0.79500
Zn110      Zn  0.45920825  0.03772786  0.72123385     1.49700
Zn111      Zn  0.45857740  0.42167407  0.72048548     1.49400
Zn112      Zn  0.99784545  0.99915347  0.68273192     1.49100
Zn113      Zn  0.07984759  0.04135862  0.72006745     1.49500
O114        O  0.00008071  0.00035549  0.71189916    -1.81800
O115        O  0.38983131  0.48839188  0.73631473    -0.72400
O116        O  0.43199692  0.36600747  0.69675413    -0.72200
O117        O  0.46230128  0.03904592  0.67155824    -0.71700
O118        O  0.38946695  0.40649755  0.73682076    -0.72400
O119        O  0.42984522  0.06471419  0.69784817    -0.72000
O120        O  0.46080553  0.42425147  0.67040575    -0.72600
O121        O  0.13237207  0.06717729  0.69563816    -0.72000
O122        O  0.01121676  0.40664845  0.73741217    -0.72700
O123        O  0.07154278  0.03377936  0.67004856    -0.72100
O124        O  0.09325721  0.48846823  0.73755972    -0.72600
O125        O  0.09637915  0.11021279  0.73669126    -0.72500
O126        O  0.01331643  0.10750390  0.73806392    -0.72300
C127        C  0.36768540  0.43669531  0.74158363     0.79500
C128        C  0.43649796  0.37479832  0.67764547     0.80000
C129        C  0.43580780  0.06187453  0.67877504     0.79000
C130        C  0.12166509  0.05980420  0.67669092     0.79300
C131        C  0.06295323  0.43671223  0.74265498     0.80500
C132        C  0.06571460  0.13055340  0.74251650     0.79500
C133        C  0.33200508  0.16599732  0.16712059     0.47800
H134        H  0.33159920  0.16565534  0.15023742    -0.01200
C135        C  0.33254168  0.16729525  0.20681514     0.47900
H136        H  0.33283349  0.16784317  0.22372275    -0.01200
C137        C  0.27189574  0.13729900  0.17671908    -0.14900
C138        C  0.36097106  0.13497559  0.17673462    -0.14600
C139        C  0.36289980  0.22636573  0.17640299    -0.15000
C140        C  0.27304464  0.13795652  0.19757725    -0.15000
C141        C  0.36140042  0.13671474  0.19761526    -0.14600
C142        C  0.36260244  0.22628353  0.19723260    -0.14900
C143        C  0.49905362  0.00082080  0.14102898     0.47800
H144        H  0.49909728  0.00089504  0.15791466    -0.01200
C145        C  0.49940227  0.00005811  0.10131316     0.47900
H146        H  0.49942864  0.99975289  0.08440997    -0.01200
C147        C  0.46944002  0.43884117  0.13181105    -0.14900
C148        C  0.46839724  0.03003874  0.13139527    -0.14600
C149        C  0.05888851  0.02841020  0.13194313    -0.15000
C150        C  0.46999628  0.43857955  0.11097766    -0.15000
C151        C  0.46819696  0.02841390  0.11051915    -0.14600
C152        C  0.05814107  0.02790151  0.11106847    -0.14900
Zn153      Zn  0.11958694  0.25775530  0.93909588     1.49700
Zn154      Zn  0.16465770  0.33337753  0.89867730     1.49400
Zn155      Zn  0.13266051  0.37995274  0.93817721     1.49100
Zn156      Zn  0.24242724  0.36625356  0.93855321     1.49500
O157        O  0.16489587  0.33443608  0.92841792    -1.81800
O158        O  0.08690496  0.20010118  0.91681161    -0.72400
O159        O  0.12448990  0.37402475  0.88762909    -0.72200
O160        O  0.06655758  0.33618225  0.95647228    -0.71700
O161        O  0.12262379  0.25175689  0.88870232    -0.72400
O162        O  0.05984730  0.25188705  0.95802256    -0.72000
O163        O  0.10748392  0.41071163  0.91517460    -0.72600
O164        O  0.26388438  0.43321444  0.95608204    -0.72000
O165        O  0.24604342  0.37270795  0.88785949    -0.72700
O166        O  0.18667180  0.44104767  0.95685857    -0.72100
O167        O  0.29902083  0.39040476  0.91571018    -0.72600
O168        O  0.24963624  0.31342704  0.95805697    -0.72500
O169        O  0.16420054  0.23677255  0.95737752    -0.72300
C170        C  0.09354505  0.20419686  0.89763311     0.79500
C171        C  0.10525460  0.40304327  0.89604793     0.80000
C172        C  0.04511803  0.28689347  0.96394714     0.79000
C173        C  0.23641909  0.45570433  0.96296922     0.79300
C174        C  0.29418346  0.39202623  0.89651531     0.80500
C175        C  0.21414863  0.26407961  0.96439432     0.79500
Zn176      Zn  0.37970262  0.24265996  0.03497526     1.49700
Zn177      Zn  0.25464869  0.13658406  0.03477025     1.49400
Zn178      Zn  0.36082630  0.11785997  0.03474020     1.49100
Zn179      Zn  0.33161858  0.16472610  0.07464778     1.49500
O180        O  0.33165739  0.16550653  0.04494389    -1.81800
O181        O  0.33724946  0.26665941  0.01666657    -0.72400
O182        O  0.23182787  0.07136466  0.01608130    -0.72200
O183        O  0.42609198  0.16014556  0.01609572    -0.71700
O184        O  0.24976409  0.19294881  0.01657623    -0.72400
O185        O  0.43998795  0.24748237  0.01637985    -0.72000
O186        O  0.30508324  0.05705393  0.01657351    -0.72600
O187        O  0.37142116  0.12328452  0.08508583    -0.72000
O188        O  0.19771153  0.11020805  0.05751639    -0.72700
O189        O  0.38626233  0.08624888  0.05718647    -0.72100
O190        O  0.25038006  0.12427239  0.08521619    -0.72600
O191        O  0.37280578  0.24560454  0.08548867    -0.72500
O192        O  0.41155989  0.29876119  0.05790688    -0.72300
C193        C  0.28670226  0.24163724  0.01012336     0.79500
C194        C  0.25692701  0.04585287  0.00977089     0.80000
C195        C  0.45129998  0.21063931  0.00962394     0.79000
C196        C  0.38947974  0.09373064  0.07631012     0.79300
C197        C  0.20241220  0.10624205  0.07660880     0.80500
C198        C  0.40301334  0.29365982  0.07700170     0.79500
C199        C  0.27212414  0.26880796  0.99379115    -0.14100
C200        C  0.22932847  0.23803864  0.98092949    -0.29200
H201        H  0.29922253  0.31404968  0.99143059     0.15000
H202        H  0.20253731  0.19274914  0.98329397     0.15500
C203        C  0.26230485  0.49721759  0.97934653    -0.14100
C204        C  0.23068284  0.00481637  0.99328275    -0.29200
H205        H  0.30802769  0.51811648  0.98120572     0.15000
H206        H  0.18525558  0.98554895  0.99095073     0.15500
C207        C  0.00495008  0.27179592  0.98078108    -0.14100
C208        C  0.49227640  0.22534713  0.99308377    -0.29200
H209        H  0.98414784  0.29650202  0.98293392     0.15000
H210        H  0.51086546  0.19873686  0.99063307     0.15500
C211        C  0.42724047  0.34414130  0.08918892    -0.10900
C212        C  0.44671679  0.38733236  0.09894598    -0.12500
C213        C  0.41547688  0.06880524  0.08818760    -0.10900
C214        C  0.43920621  0.04941518  0.09795013    -0.12500
C215        C  0.15166289  0.07958827  0.08869573    -0.10900
C216        C  0.10869185  0.05598601  0.09862456    -0.12500
C217        C  0.40673715  0.02964732  0.16006613    -0.11000
C218        C  0.44183041  0.05740928  0.14339316     0.11200
C219        C  0.44952153  0.11056319  0.13767353    -0.11000
C220        C  0.42162382  0.13448469  0.14796534    -0.11000
C221        C  0.38671064  0.10689503  0.16467987     0.11200
C222        C  0.37884749  0.05362551  0.17037777    -0.11000
H223        H  0.39468946  0.48683586  0.16333498     0.15200
H224        H  0.98395147  0.13489536  0.12640081     0.15200
H225        H  0.42845763  0.17519925  0.14309938     0.15200
H226        H  0.35081106  0.03020307  0.18280042     0.15200
C227        C  0.36930824  0.31818442  0.16638946    -0.11000
C228        C  0.38903291  0.27975484  0.16429859     0.11200
C229        C  0.43664085  0.29487152  0.15207114    -0.11000
C230        C  0.46382382  0.34728157  0.14203883    -0.11000
C231        C  0.44395402  0.38565330  0.14407126     0.11200
C232        C  0.39647159  0.37055057  0.15636098    -0.11000
H233        H  0.33277859  0.30755601  0.17583340     0.15200
H234        H  0.45369203  0.26687305  0.15067963     0.15200
H235        H  0.00020534  0.35921576  0.13201672     0.15200
H236        H  0.37935534  0.39845397  0.15775840     0.15200
C237        C  0.20826219  0.07077875  0.14964901    -0.11000
C238        C  0.21793747  0.11073239  0.16477780     0.11200
C239        C  0.17447197  0.12265709  0.16932016    -0.11000
C240        C  0.12221204  0.09461450  0.15917049    -0.11000
C241        C  0.11263859  0.05482401  0.14399030     0.11200
C242        C  0.15604087  0.04279743  0.13948375    -0.11000
H243        H  0.24065731  0.06031451  0.14601581     0.15200
H244        H  0.18103208  0.15389614  0.18074169     0.15200
H245        H  0.08978328  0.10502439  0.16281086     0.15200
H246        H  0.14913905  0.51233357  0.12732020     0.15200
C247        C  0.41506245  0.07867073  0.64415774    -0.14100
C248        C  0.41163824  0.08488487  0.66438794    -0.29200
H249        H  0.43557979  0.05637810  0.63818646     0.15000
H250        H  0.39083490  0.10684772  0.67040204     0.15500
C251        C  0.41767163  0.33598116  0.64302524    -0.14100
C252        C  0.41313259  0.32724243  0.66333908    -0.29200
H253        H  0.43935628  0.37859460  0.63681782     0.15000
H254        H  0.39174373  0.28463545  0.66955550     0.15500
C255        C  0.15818136  0.07551146  0.64172937    -0.14100
C256        C  0.16796133  0.08198398  0.66196317    -0.29200
H257        H  0.11527791  0.05293965  0.63573702     0.15000
H258        H  0.21091256  0.10465517  0.66790737     0.15500
C259        C  0.22256417  0.44350832  0.54217122    -0.10900
C260        C  0.24382567  0.48668577  0.55189327    -0.12500
C261        C  0.01470189  0.25652107  0.55182807    -0.10900
C262        C  0.05784176  0.27805037  0.54199914    -0.12500
C263        C  0.22299352  0.27886616  0.54162545    -0.10900
C264        C  0.24409169  0.25676702  0.55140800    -0.12500
C265        C  0.20782518  0.48981882  0.50120362    -0.11000
C266        C  0.22235416  0.44809599  0.49697691     0.11200
C267        C  0.26414229  0.45954836  0.48238853    -0.11000
C268        C  0.28874082  0.00914893  0.47102859    -0.11000
C269        C  0.27628691  0.05209110  0.47575267     0.11200
C270        C  0.23527295  0.04146709  0.49055946    -0.11000
H271        H  0.17530908  0.48179108  0.51229845     0.15200
H272        H  0.27655954  0.42845050  0.47906266     0.15200
H273        H  0.32063356  0.01647285  0.45975495     0.15200
H274        H  0.22436580  0.07347380  0.49425187     0.15200
C275        C  0.04101826  0.23574519  0.48281520    -0.11000
C276        C  0.05410778  0.27922657  0.49680612     0.11200
C277        C  0.01397566  0.29615200  0.50043542    -0.11000
C278        C  0.45479399  0.25875558  0.49329544    -0.11000
C279        C  0.44595197  0.22139395  0.47727257     0.11200
C280        C  0.48971293  0.21051604  0.47223942    -0.11000
H281        H  0.07081547  0.22171002  0.47978306     0.15200
H282        H  0.02333158  0.33011186  0.51101296     0.15200
H283        H  0.42194501  0.26762094  0.49769507     0.15200
H284        H  0.48369399  0.18061531  0.46035789     0.15200
C285        C  0.19255039  0.23124015  0.48430634    -0.11000
C286        C  0.22538152  0.27867940  0.49654402     0.11200
C287        C  0.28350851  0.29786240  0.49874470    -0.11000
C288        C  0.30822125  0.27010561  0.48888004    -0.11000
C289        C  0.27528944  0.22247195  0.47673763     0.11200
C290        C  0.21720862  0.20337991  0.47449150    -0.11000
H291        H  0.14761336  0.21466990  0.48277271     0.15200
H292        H  0.30972246  0.33435953  0.50815047     0.15200
H293        H  0.35327582  0.28688422  0.49028169     0.15200
H294        H  0.19100272  0.16691807  0.46506879     0.15200
C295        C  0.34510074  0.41784694  0.88442494    -0.10900
C296        C  0.38858400  0.44155153  0.87472688    -0.12500
C297        C  0.05610477  0.44741577  0.87397742    -0.10900
C298        C  0.07919613  0.42728151  0.88374388    -0.12500
C299        C  0.06833382  0.15320052  0.88580659    -0.10900
C300        C  0.04897794  0.11031947  0.87592367    -0.12500
C301        C  0.27352493  0.38983933  0.76332377    -0.10900
C302        C  0.31624688  0.41147549  0.75324895    -0.12500
C303        C  0.08827178  0.41110290  0.75446497    -0.10900
C304        C  0.10968067  0.38946921  0.76426100    -0.12500
C305        C  0.09110739  0.18159472  0.75432143    -0.10900
C306        C  0.11133168  0.22445774  0.76424225    -0.12500
C307        C  0.14036563  0.44013066  0.82072218    -0.11000
C308        C  0.10771815  0.39105632  0.80922189     0.11200
C309        C  0.04903003  0.36979998  0.80755674    -0.11000
C310        C  0.02345418  0.39682950  0.81738569    -0.11000
C311        C  0.05611061  0.44582075  0.82894329     0.11200
C312        C  0.11481519  0.46722074  0.83051338    -0.11000
H313        H  0.18573920  0.45828833  0.82175112     0.15200
H314        H  0.02303341  0.33217688  0.79862628     0.15200
H315        H  0.97804790  0.37852915  0.81642537     0.15200
H316        H  0.14080825  0.50481956  0.83945306     0.15200
C317        C  0.32322114  0.37927177  0.80374491    -0.11000
C318        C  0.27967724  0.39062302  0.80876055     0.11200
C319        C  0.28960388  0.42967788  0.82427679    -0.11000
C320        C  0.34201130  0.45733511  0.83432373    -0.10400
C321        C  0.38538352  0.44563894  0.82941591     0.11200
C322        C  0.37565664  0.40700166  0.81376852    -0.11000
H323        H  0.31660428  0.34864828  0.79206372     0.15200
H324        H  0.25723107  0.43951878  0.82844386     0.15200
H325        H  0.35962964  0.00023423  0.84109666     0.15200
H326        H  0.40801177  0.39715722  0.80959753     0.15200
C327        C  0.13554912  0.21249235  0.82549989    -0.11000
C328        C  0.10617227  0.22111457  0.80970996     0.11200
C329        C  0.05126153  0.17697189  0.80478134    -0.11000
C330        C  0.02702614  0.12485788  0.81497334    -0.11000
C331        C  0.05658732  0.11605852  0.83064037     0.11200
C332        C  0.11126002  0.16040425  0.83572309    -0.11000
H333        H  0.17791848  0.24547834  0.82953987     0.15200
H334        H  0.02700540  0.18278133  0.79295826     0.15200
H335        H  0.98469547  0.09182498  0.81091505     0.15200
H336        H  0.13544999  0.15460307  0.84757558     0.15200
C337        C  0.38797916  0.27721867  0.20943415    -0.10900
C338        C  0.40884568  0.32020399  0.21931964    -0.12500
C339        C  0.41065959  0.09293539  0.22008502    -0.10900
C340        C  0.38850012  0.11384822  0.21026536    -0.12500
C341        C  0.22279063  0.11143012  0.21009793    -0.10900
C342        C  0.17957514  0.08927360  0.21984723    -0.12500
C343        C  0.07824415  0.41537829  0.33014894    -0.14100
C344        C  0.08327851  0.41071233  0.30991480    -0.29200
H345        H  0.05694264  0.43688764  0.33612777     0.15000
H346        H  0.10444447  0.38907774  0.30392370     0.15500
C347        C  0.07944368  0.16233865  0.32999988    -0.14100
C348        C  0.08352934  0.17182359  0.30972948    -0.29200
H349        H  0.05778263  0.11952827  0.33602935     0.15000
H350        H  0.10494079  0.21461816  0.30367903     0.15500
C351        C  0.32753377  0.41657186  0.31066967    -0.14100
C352        C  0.33758479  0.42138237  0.33092038    -0.29200
H353        H  0.28454373  0.39521446  0.30474181     0.15000
H354        H  0.38056543  0.44274895  0.33685733     0.15500
C355        C  0.25453842  0.01603291  0.42065721    -0.10900
C356        C  0.27693979  0.05880890  0.43058222    -0.12500
C357        C  0.44315079  0.22273334  0.43173471    -0.10900
C358        C  0.48606483  0.24328311  0.42182928    -0.12500
C359        C  0.25516123  0.24204409  0.42168214    -0.10900
C360        C  0.27725646  0.22135633  0.43164446    -0.12500
Zn361      Zn  0.12659186  0.75494070  0.38811786     1.49700
Zn362      Zn  0.16505084  0.83412668  0.34981204     1.49400
Zn363      Zn  0.12451441  0.87244321  0.38804529     1.49100
Zn364      Zn  0.24437372  0.87456483  0.38791381     1.49500
O365        O  0.16507052  0.83393008  0.37904351    -1.81800
O366        O  0.09992198  0.70023169  0.36410086    -0.72400
O367        O  0.12718200  0.87114828  0.33814909    -0.72200
O368        O  0.05701914  0.81960155  0.40514907    -0.71700
O369        O  0.12834030  0.75933094  0.33798724    -0.72400
O370        O  0.05789104  0.73833090  0.40508181    -0.72000
O371        O  0.09561235  0.89847224  0.36425568    -0.72600
O372        O  0.25937920  0.94320386  0.40419474    -0.72000
O373        O  0.23992065  0.87186344  0.33796213    -0.72700
O374        O  0.17689633  0.94189449  0.40434043    -0.72100
O375        O  0.29917380  0.90180494  0.36402885    -0.72600
O376        O  0.26160457  0.82326486  0.40488949    -0.72500
O377        O  0.18063192  0.74052097  0.40477155    -0.72300
C378        C  0.10450030  0.70967875  0.34502589     0.79500
C379        C  0.10116042  0.89469022  0.34520690     0.80000
C380        C  0.03582181  0.76795170  0.41030358     0.79000
C381        C  0.22897294  0.96451662  0.40920846     0.79300
C382        C  0.28967547  0.89677156  0.34497855     0.80500
C383        C  0.23242367  0.77131510  0.40988869     0.79500
Zn384      Zn  0.03696985  0.95971426  0.25303500     1.49700
Zn385      Zn  0.04015049  0.57883767  0.25275517     1.49400
Zn386      Zn  0.42046652  0.96085724  0.25284049     1.49100
Zn387      Zn  0.99784491  0.00013474  0.29091801     1.49500
O388        O  0.99751640  0.99936996  0.26175153    -1.81800
O389        O  0.10919065  0.51302478  0.23620910    -0.72400
O390        O  0.48582839  0.59644755  0.23683035    -0.72200
O391        O  0.40466319  0.89333306  0.23547756    -0.71700
O392        O  0.10811509  0.59419601  0.23566532    -0.72400
O393        O  0.48631107  0.89295767  0.23554320    -0.72000
O394        O  0.40416889  0.51438968  0.23598440    -0.72600
O395        O  0.42431519  0.96213372  0.30283125    -0.72000
O396        O  0.06850699  0.63395422  0.27667990    -0.72700
O397        O  0.36528122  0.93258152  0.27669104    -0.72100
O398        O  0.03985689  0.57507686  0.30284234    -0.72600
O399        O  0.03569662  0.96350517  0.30295391    -0.72500
O400        O  0.06372503  0.93220315  0.27697784    -0.72300
C401        C  0.13036374  0.56449111  0.23080050     0.79500
C402        C  0.43441800  0.56646292  0.23122340     0.80000
C403        C  0.43472558  0.87180616  0.23018970     0.79000
C404        C  0.37462462  0.93729639  0.29576110     0.79300
C405        C  0.06436510  0.62469732  0.29576246     0.80500
C406        C  0.05968943  0.93782018  0.29600252     0.79500
C407        C  0.16498970  0.83378913  0.80734518     0.47800
H408        H  0.16380599  0.83320684  0.82422708    -0.01200
C409        C  0.16781916  0.83478062  0.76765208     0.47900
H410        H  0.16918362  0.83536362  0.75075159    -0.01200
C411        C  0.13729154  0.86570492  0.79752820    -0.14900
C412        C  0.22565230  0.86176673  0.79840206    -0.14600
C413        C  0.13324697  0.77399837  0.79757455    -0.15000
C414        C  0.13956191  0.86610744  0.77666566    -0.15000
C415        C  0.22641758  0.86186677  0.77759077    -0.14600
C416        C  0.13516184  0.77529199  0.77671910    -0.14900
C417        C  0.49906499  0.99964803  0.83263802     0.47800
H418        H  0.49887114  0.99934083  0.81575264    -0.01200
C419        C  0.49934340  0.00061391  0.87235613     0.47900
H420        H  0.49931785  0.00093963  0.88926105    -0.01200
C421        C  0.02792015  0.56079370  0.84157376    -0.14900
C422        C  0.43911497  0.96816784  0.84223150    -0.14600
C423        C  0.03202507  0.97347851  0.84218047    -0.15000
C424        C  0.02738876  0.55976716  0.86243297    -0.15000
C425        C  0.43988616  0.96868961  0.86302935    -0.14600
C426        C  0.03097889  0.97318477  0.86307083    -0.14900
C427        C  0.16506244  0.83375697  0.53839526     0.47800
H428        H  0.16530722  0.83427505  0.55530340    -0.01200
C429        C  0.16449036  0.83238444  0.49867370     0.47900
H430        H  0.16414603  0.83190651  0.48178798    -0.01200
C431        C  0.19458436  0.89258673  0.52877617    -0.14900
C432        C  0.19449313  0.80389193  0.52921733    -0.14600
C433        C  0.10569242  0.80399257  0.52916327    -0.15000
C434        C  0.19412223  0.89276167  0.50792154    -0.15000
C435        C  0.19538924  0.80349241  0.50837004    -0.14600
C436        C  0.10453955  0.80263002  0.50834010    -0.14900
C437        C  0.33330264  0.66746585  0.43448864     0.47800
H438        H  0.33390299  0.66771427  0.41758368    -0.01200
C439        C  0.33216569  0.66719370  0.47421705     0.47900
H440        H  0.33178670  0.66697701  0.49110387    -0.01200
C441        C  0.30362437  0.69723546  0.44365659    -0.14900
C442        C  0.30313722  0.60810221  0.44377050    -0.14600
C443        C  0.39230561  0.69659063  0.44412440    -0.15000
C444        C  0.30224012  0.69702958  0.46451533    -0.15000
C445        C  0.30255470  0.60721540  0.46463577    -0.14600
C446        C  0.39246749  0.69687097  0.46493286    -0.14900
Zn447      Zn  0.37079060  0.74715070  0.58472794     1.49700
Zn448      Zn  0.37291290  0.62971022  0.58483818     1.49400
Zn449      Zn  0.33379916  0.66871793  0.62310953     1.49100
Zn450      Zn  0.25314225  0.62700221  0.58538697     1.49500
O451        O  0.33262591  0.66823094  0.59393601    -1.81800
O452        O  0.43962526  0.76399926  0.56788134    -0.72400
O453        O  0.40100996  0.60239970  0.60847448    -0.72200
O454        O  0.37051071  0.74359100  0.63455751    -0.71700
O455        O  0.44068382  0.68282627  0.56809213    -0.72400
O456        O  0.39703404  0.80266937  0.60849094    -0.72000
O457        O  0.37223557  0.63217477  0.63467841    -0.72600
O458        O  0.19944653  0.59937886  0.60955845    -0.72000
O459        O  0.32107648  0.56124314  0.56812706    -0.72700
O460        O  0.25946047  0.63105961  0.63540504    -0.72100
O461        O  0.23800988  0.55862541  0.56878399    -0.72600
O462        O  0.23519419  0.67816387  0.56869957    -0.72500
O463        O  0.31661560  0.76051893  0.56797943    -0.72300
C464        C  0.46184466  0.73437978  0.56286175     0.79500
C465        C  0.39679141  0.60724221  0.62754012     0.80000
C466        C  0.39328165  0.79319709  0.62755239     0.79000
C467        C  0.20952186  0.60511834  0.62857020     0.79300
C468        C  0.26888474  0.53811909  0.56341278     0.80500
C469        C  0.26454500  0.72975226  0.56327757     0.79500
Zn470      Zn  0.45938308  0.54085445  0.71988995     1.49700
Zn471      Zn  0.46049204  0.91998906  0.72038409     1.49400
Zn472      Zn  0.00011386  0.50121264  0.68217373     1.49100
Zn473      Zn  0.07826677  0.54113685  0.72059111     1.49500
O474        O  0.99915943  0.50120230  0.71140187    -1.81800
O475        O  0.39238870  0.98474267  0.73853466    -0.72400
O476        O  0.43167086  0.86601454  0.69615655    -0.72200
O477        O  0.46156518  0.53731059  0.66976098    -0.71700
O478        O  0.39292157  0.90334192  0.73798827    -0.72400
O479        O  0.43375303  0.56893525  0.69572723    -0.72000
O480        O  0.45902518  0.92614898  0.67037936    -0.72600
O481        O  0.13412332  0.56841903  0.69695010    -0.72000
O482        O  0.01677905  0.90807134  0.73774853    -0.72700
O483        O  0.07537895  0.53928091  0.67074146    -0.72100
O484        O  0.09802730  0.99051670  0.73672295    -0.72600
O485        O  0.09379940  0.60970156  0.73721480    -0.72500
O486        O  0.01173351  0.60918390  0.73714645    -0.72300
C487        C  0.37133314  0.93306658  0.74361534     0.79500
C488        C  0.43477054  0.87624591  0.67715232     0.80000
C489        C  0.43807222  0.56352120  0.67669569     0.79000
C490        C  0.12500590  0.56384032  0.67787269     0.79300
C491        C  0.06898067  0.93904481  0.74226657     0.80500
C492        C  0.06361926  0.63125539  0.74227701     0.79500
C493        C  0.33341388  0.66733294  0.16590161     0.47800
H494        H  0.33312360  0.66702179  0.14901451    -0.01200
C495        C  0.33380380  0.66851628  0.20561277     0.47900
H496        H  0.33404393  0.66904084  0.22251927    -0.01200
C497        C  0.27334700  0.63822497  0.17550564    -0.14900
C498        C  0.36283209  0.63685551  0.17554505    -0.14600
C499        C  0.36361502  0.72754177  0.17520910    -0.15000
C500        C  0.27436959  0.63875660  0.19636960    -0.15000
C501        C  0.36298358  0.63828023  0.19642182    -0.14600
C502        C  0.36337352  0.72748722  0.19601782    -0.14900
C503        C  0.49836047  0.49935999  0.14094736     0.47800
H504        H  0.49860715  0.50003551  0.15783084    -0.01200
C505        C  0.49798772  0.49750879  0.10124219     0.47900
H506        H  0.49779992  0.49672678  0.08433948    -0.01200
C507        C  0.47024320  0.94070595  0.13163571    -0.14900
C508        C  0.46766902  0.52843807  0.13114434    -0.14600
C509        C  0.05961637  0.53057650  0.13157573    -0.15000
C510        C  0.47115723  0.94081578  0.11081793    -0.15000
C511        C  0.46708021  0.52630949  0.11029056    -0.14600
C512        C  0.05807145  0.53025465  0.11072863    -0.14900
Zn513      Zn  0.11965771  0.75585370  0.93870778     1.49700
Zn514      Zn  0.16511514  0.83353009  0.89884468     1.49400
Zn515      Zn  0.13329493  0.87837988  0.93890492     1.49100
Zn516      Zn  0.24262262  0.86510950  0.93878609     1.49500
O517        O  0.16518607  0.83322121  0.92858976    -1.81800
O518        O  0.08823597  0.69928729  0.91595149    -0.72400
O519        O  0.12520767  0.87505650  0.88841519    -0.72200
O520        O  0.06736644  0.83361596  0.95705286    -0.71700
O521        O  0.12328623  0.75229393  0.88811134    -0.72400
O522        O  0.05868742  0.74838179  0.95757002    -0.72000
O523        O  0.10769009  0.90979379  0.91639581    -0.72600
O524        O  0.26422427  0.93112497  0.95684467    -0.72000
O525        O  0.24658553  0.87327967  0.88824547    -0.72700
O526        O  0.18716661  0.93909628  0.95765433    -0.72100
O527        O  0.29932518  0.89014689  0.91611936    -0.72600
O528        O  0.24971502  0.81155954  0.95766068    -0.72500
O529        O  0.16440261  0.73465991  0.95683120    -0.72300
C530        C  0.09472426  0.70420148  0.89677012     0.79500
C531        C  0.10561893  0.90327048  0.89722309     0.80000
C532        C  0.04458116  0.78356361  0.96389564     0.79000
C533        C  0.23678190  0.95352168  0.96381773     0.79300
C534        C  0.29459746  0.89225943  0.89695173     0.80500
C535        C  0.21437565  0.76202109  0.96382855     0.79500
Zn536      Zn  0.37949142  0.74382111  0.03498491     1.49700
Zn537      Zn  0.25493145  0.63679932  0.03470005     1.49400
Zn538      Zn  0.36155262  0.61912481  0.03443708     1.49100
Zn539      Zn  0.33236053  0.66567529  0.07462321     1.49500
O540        O  0.33211123  0.66636405  0.04488869    -1.81800
O541        O  0.33668867  0.76701633  0.01661294    -0.72400
O542        O  0.23134174  0.57093711  0.01626348    -0.72200
O543        O  0.42723175  0.66259583  0.01605795    -0.71700
O544        O  0.24984874  0.69229684  0.01626050    -0.72400
O545        O  0.44018376  0.74960378  0.01643943    -0.72000
O546        O  0.30604126  0.55898554  0.01580694    -0.72600
O547        O  0.37208432  0.62351665  0.08486295    -0.72000
O548        O  0.19823218  0.61167334  0.05735540    -0.72700
O549        O  0.38674139  0.58669005  0.05684993    -0.72100
O550        O  0.25065296  0.62547800  0.08511536    -0.72600
O551        O  0.37399299  0.74704677  0.08550598    -0.72500
O552        O  0.41092178  0.80024924  0.05782182    -0.72300
C553        C  0.28636607  0.74118526  0.00988113     0.79500
C554        C  0.25712577  0.54664294  0.00944671     0.80000
C555        C  0.45205803  0.71318127  0.00967044     0.79000
C556        C  0.38999478  0.59387235  0.07600982     0.79300
C557        C  0.20275843  0.60783187  0.07645100     0.80500
C558        C  0.40330054  0.79523349  0.07695835     0.79500
C559        C  0.27157267  0.76764048  0.99342403    -0.14100
C560        C  0.22983831  0.73617925  0.98028824    -0.29200
H561        H  0.29763828  0.81308734  0.99125426     0.15000
H562        H  0.20398610  0.69071001  0.98246172     0.15500
C563        C  0.26245364  0.99470704  0.98029378    -0.14100
C564        C  0.23062811  0.50569952  0.99291372    -0.29200
H565        H  0.30793278  0.01433308  0.98261065     0.15000
H566        H  0.18491192  0.48500801  0.99108109     0.15500
C567        C  0.00326115  0.76782345  0.98038366    -0.14100
C568        C  0.49314193  0.72839205  0.99316207    -0.29200
H569        H  0.98307227  0.79310939  0.98250581     0.15000
H570        H  0.51252469  0.70244386  0.99083305     0.15500
C571        C  0.42771466  0.84599656  0.08908759    -0.10900
C572        C  0.44761017  0.88953221  0.09871057    -0.12500
C573        C  0.41571298  0.56836586  0.08785967    -0.10900
C574        C  0.43886585  0.54826829  0.09764726    -0.12500
C575        C  0.15174742  0.58164417  0.08841517    -0.10900
C576        C  0.10838871  0.55819583  0.09814625    -0.12500
C577        C  0.40416764  0.52869192  0.15885770    -0.11000
C578        C  0.44207738  0.55694622  0.14293144     0.11200
C579        C  0.45310606  0.61152903  0.13756443    -0.11000
C580        C  0.42594743  0.63663450  0.14762205    -0.11000
C581        C  0.38811590  0.60834176  0.16359220     0.11200
C582        C  0.37689569  0.55368035  0.16886347    -0.11000
H583        H  0.39988907  0.98886517  0.16489386     0.15200
H584        H  0.98025065  0.63509333  0.12640800     0.15200
H585        H  0.43548022  0.67861438  0.14319550     0.15200
H586        H  0.34687597  0.53012634  0.18079329     0.15200
C587        C  0.36719057  0.81744321  0.16445906    -0.11000
C588        C  0.38929584  0.78081318  0.16316244     0.11200
C589        C  0.43914883  0.79793542  0.15206152    -0.11000
C590        C  0.46643254  0.85074795  0.14237147    -0.11000
C591        C  0.44436706  0.88738868  0.14365974     0.11200
C592        C  0.39442902  0.87023653  0.15473247    -0.11000
H593        H  0.32893106  0.80515446  0.17309480     0.15200
H594        H  0.45773310  0.77112275  0.15130562     0.15200
H595        H  0.00193285  0.85879443  0.13352792     0.15200
H596        H  0.37577711  0.89699735  0.15544698     0.15200
C597        C  0.20905100  0.57180226  0.14859469    -0.11000
C598        C  0.21955206  0.61231390  0.16358818     0.11200
C599        C  0.17691830  0.62537617  0.16813154    -0.11000
C600        C  0.12438710  0.59759293  0.15821121    -0.11000
C601        C  0.11377322  0.55692166  0.14328642     0.11200
C602        C  0.15650870  0.54403833  0.13865686    -0.11000
H603        H  0.24094876  0.56065445  0.14494600     0.15200
H604        H  0.18428654  0.65713334  0.17944320     0.15200
H605        H  0.09248950  0.60873216  0.16186514     0.15200
H606        H  0.14949291  0.01161655  0.12803762     0.15200
C607        C  0.42021677  0.58340307  0.64192054    -0.14100
C608        C  0.41559235  0.58794538  0.66218613    -0.29200
H609        H  0.44102857  0.56154748  0.63581462     0.15000
H610        H  0.39483714  0.60988102  0.66826988     0.15500
C611        C  0.41555762  0.83993983  0.64215784    -0.14100
C612        C  0.41065168  0.82988741  0.66240912    -0.29200
H613        H  0.43666369  0.88288575  0.63625267     0.15000
H614        H  0.38948463  0.78691730  0.66828861     0.15500
C615        C  0.16277645  0.58158898  0.64317708    -0.14100
C616        C  0.17226636  0.58711321  0.66343862    -0.29200
H617        H  0.11988954  0.55958035  0.63715887     0.15000
H618        H  0.21512948  0.60898260  0.66948281     0.15500
C619        C  0.22203109  0.94314006  0.54101713    -0.10900
C620        C  0.24432818  0.98588330  0.55094717    -0.12500
C621        C  0.01279486  0.75885282  0.55169793    -0.10900
C622        C  0.05548588  0.77944047  0.54168192    -0.12500
C623        C  0.21729910  0.77674194  0.54181994    -0.10900
C624        C  0.23799089  0.75449376  0.55167475    -0.12500
C625        C  0.20692576  0.98885427  0.50034074    -0.11000
C626        C  0.21975857  0.94611565  0.49579233     0.11200
C627        C  0.26042006  0.95650654  0.48084309    -0.11000
C628        C  0.29143322  0.51193122  0.47241276    -0.11000
C629        C  0.27683501  0.55358938  0.47658337     0.11200
C630        C  0.23510850  0.54223356  0.49120526    -0.11000
H631        H  0.17510357  0.98159190  0.51163521     0.15200
H632        H  0.27141210  0.92453325  0.47719694     0.15200
H633        H  0.32404037  0.51998057  0.46135655     0.15200
H634        H  0.22277172  0.57339041  0.49454088     0.15200
C635        C  0.03651363  0.73052182  0.48353541    -0.11000
C636        C  0.05051891  0.77616596  0.49660822     0.11200
C637        C  0.01057297  0.79354667  0.49982216    -0.11000
C638        C  0.46206542  0.77105647  0.48872980    -0.11000
C639        C  0.44595633  0.72257313  0.47696511     0.11200
C640        C  0.48382931  0.70206543  0.47500670    -0.11000
H641        H  0.06568075  0.71529434  0.48119983     0.15200
H642        H  0.02039772  0.82874893  0.50984167     0.15200
H643        H  0.43450902  0.78863826  0.48999357     0.15200
H644        H  0.47239243  0.66484223  0.46588960     0.15200
C645        C  0.19463358  0.73884651  0.48105790    -0.11000
C646        C  0.22369916  0.77793831  0.49656022     0.11200
C647        C  0.27875331  0.78978326  0.50167121    -0.11000
C648        C  0.30343596  0.76197939  0.49185108    -0.11000
C649        C  0.27424209  0.72280767  0.47636173     0.11200
C650        C  0.21924607  0.71100590  0.47126692    -0.11000
H651        H  0.15246310  0.72882941  0.47677292     0.15200
H652        H  0.30271435  0.82057225  0.51334007     0.15200
H653        H  0.34567737  0.77197558  0.49610492     0.15200
H654        H  0.19524262  0.68018468  0.45961406     0.15200
C655        C  0.34547940  0.91792400  0.88493606    -0.10900
C656        C  0.38896157  0.94100580  0.87528348    -0.12500
C657        C  0.05645180  0.94824447  0.87555720    -0.10900
C658        C  0.07924970  0.92782786  0.88531494    -0.12500
C659        C  0.06977127  0.65346562  0.88468122    -0.10900
C660        C  0.04988146  0.61025518  0.87489789    -0.12500
C661        C  0.27789117  0.88640455  0.76568972    -0.10900
C662        C  0.32091739  0.90732930  0.75581147    -0.12500
C663        C  0.09610702  0.91490645  0.75387894    -0.10900
C664        C  0.11732312  0.89342437  0.76387710    -0.12500
C665        C  0.08917298  0.68245597  0.75404356    -0.10900
C666        C  0.11059095  0.72521969  0.76406120    -0.12500
C667        C  0.13849579  0.92947026  0.82541703    -0.11000
C668        C  0.10989089  0.89245085  0.80930436     0.11200
C669        C  0.05610017  0.88344408  0.80375887    -0.11000
C670        C  0.03216000  0.91166006  0.81379361    -0.11000
C671        C  0.06046153  0.94831566  0.83002792     0.11200
C672        C  0.11458992  0.95782151  0.83541216    -0.11000
H673        H  0.17978113  0.93737116  0.83007111     0.15200
H674        H  0.03228283  0.85423586  0.79166400     0.15200
H675        H  0.99096114  0.90370713  0.80910467     0.15200
H676        H  0.13856493  0.98723346  0.84742993     0.15200
C677        C  0.31567315  0.86515647  0.80923880    -0.11000
C678        C  0.27854801  0.88666871  0.81076937     0.11200
C679        C  0.29505342  0.93551476  0.82238183    -0.11000
C680        C  0.34779368  0.96258981  0.83217943    -0.10400
C681        C  0.38519179  0.94149616  0.83045482     0.11200
C682        C  0.36847964  0.89226626  0.81904068    -0.11000
H683        H  0.30387509  0.82759234  0.80028065     0.15200
H684        H  0.26810619  0.95385851  0.82332981     0.15200
H685        H  0.34859364  0.48778408  0.84607346     0.15200
H686        H  0.39565528  0.87415119  0.81802852     0.15200
C687        C  0.13566694  0.70976752  0.82426947    -0.11000
C688        C  0.10523272  0.72016452  0.80939737     0.11200
C689        C  0.04947303  0.67735740  0.80483882    -0.11000
C690        C  0.02493819  0.62490416  0.81478589    -0.11000
C691        C  0.05537995  0.61458161  0.82969100     0.11200
C692        C  0.11118045  0.65735478  0.83418970    -0.11000
H693        H  0.17886448  0.74171337  0.82784965     0.15200
H694        H  0.02488751  0.68455388  0.79353383     0.15200
H695        H  0.98178785  0.59288731  0.81118910     0.15200
H696        H  0.13586029  0.65015824  0.84545533     0.15200
C697        C  0.38841372  0.77845842  0.20815191    -0.10900
C698        C  0.40940895  0.82135538  0.21806037    -0.12500
C699        C  0.40967086  0.59250182  0.21925773    -0.10900
C700        C  0.38878310  0.61412318  0.20911572    -0.12500
C701        C  0.22414284  0.61213124  0.20892573    -0.10900
C702        C  0.18138861  0.59009891  0.21894869    -0.12500
C703        C  0.07740604  0.91799712  0.33075825    -0.14100
C704        C  0.08298176  0.91422733  0.31050823    -0.29200
H705        H  0.05526850  0.93858129  0.33681413     0.15000
H706        H  0.10490921  0.89342411  0.30445752     0.15500
C707        C  0.08207476  0.66263199  0.33052466    -0.14100
C708        C  0.08770132  0.67186669  0.31023264    -0.29200
H709        H  0.06059007  0.61987749  0.33660535     0.15000
H710        H  0.10920275  0.71461818  0.30414524     0.15500
C711        C  0.32746049  0.91399590  0.31022544    -0.14100
C712        C  0.33677640  0.91985137  0.33049739    -0.29200
H713        H  0.28463646  0.89201894  0.30415088     0.15000
H714        H  0.37960285  0.94183713  0.33657332     0.15500
C715        C  0.25575736  0.51469202  0.42143848    -0.10900
C716        C  0.27718301  0.55772303  0.43129261    -0.12500
C717        C  0.44328807  0.72193374  0.43204976    -0.10900
C718        C  0.48663349  0.74349847  0.42241709    -0.12500
C719        C  0.25906366  0.74628473  0.42139433    -0.10900
C720        C  0.28040527  0.72428119  0.43109438    -0.12500
Zn721      Zn  0.62694376  0.25415693  0.38795390     1.49700
Zn722      Zn  0.66662095  0.33338642  0.34959218     1.49400
Zn723      Zn  0.62604837  0.37184337  0.38764196     1.49100
Zn724      Zn  0.74524074  0.37341669  0.38794235     1.49500
O725        O  0.66623313  0.33308756  0.37880091    -1.81800
O726        O  0.59929200  0.19933057  0.36412523    -0.72400
O727        O  0.63011029  0.37181373  0.33771364    -0.72200
O728        O  0.55837702  0.31964014  0.40455081    -0.71700
O729        O  0.62807014  0.25835283  0.33797391    -0.72400
O730        O  0.55869875  0.23815280  0.40497838    -0.72000
O731        O  0.59798550  0.39840938  0.36386814    -0.72600
O732        O  0.76041271  0.44226499  0.40423113    -0.72000
O733        O  0.74190813  0.36944483  0.33800540    -0.72700
O734        O  0.67774480  0.44049750  0.40421241    -0.72100
O735        O  0.80064183  0.39955365  0.36424274    -0.72600
O736        O  0.76103096  0.32194488  0.40523705    -0.72500
O737        O  0.68014965  0.23911129  0.40464303    -0.72300
C738        C  0.60350093  0.20872298  0.34506504     0.79500
C739        C  0.60393647  0.39517436  0.34482282     0.80000
C740        C  0.53695003  0.26821463  0.40995473     0.79000
C741        C  0.72965040  0.46318215  0.40926070     0.79300
C742        C  0.79153925  0.39407602  0.34516894     0.80500
C743        C  0.73157551  0.26997053  0.41012373     0.79500
Zn744      Zn  0.53790553  0.46163588  0.25318514     1.49700
Zn745      Zn  0.53994738  0.07882692  0.25303395     1.49400
Zn746      Zn  0.92149447  0.45967812  0.25295660     1.49100
Zn747      Zn  0.49857204  0.50019379  0.29146037     1.49500
O748        O  0.49823838  0.50080539  0.26224851    -1.81800
O749        O  0.60847120  0.01263680  0.23675719    -0.72400
O750        O  0.98502287  0.09348783  0.23557141    -0.72200
O751        O  0.90595426  0.39208749  0.23569122    -0.71700
O752        O  0.60846401  0.09432223  0.23643024    -0.72400
O753        O  0.98805814  0.39273656  0.23547087    -0.72000
O754        O  0.90260953  0.01210591  0.23589014    -0.72600
O755        O  0.92676600  0.46278212  0.30306870    -0.72000
O756        O  0.56721340  0.13331125  0.27690670    -0.72700
O757        O  0.86740740  0.43053046  0.27702787    -0.72100
O758        O  0.53666427  0.07415968  0.30298995    -0.72600
O759        O  0.53518783  0.46191416  0.30313129    -0.72500
O760        O  0.56597325  0.43441064  0.27686062    -0.72300
C761        C  0.63033933  0.06433717  0.23154270     0.79500
C762        C  0.93308479  0.06368671  0.23059108     0.80000
C763        C  0.93625789  0.37089449  0.23035076     0.79000
C764        C  0.87700714  0.43616798  0.29607335     0.79300
C765        C  0.56185749  0.12381983  0.29594942     0.80500
C766        C  0.56073036  0.43804708  0.29593430     0.79500
C767        C  0.66457434  0.33260520  0.80666087     0.47800
H768        H  0.66495775  0.33226311  0.82354436    -0.01200
C769        C  0.66306196  0.33315104  0.76696542     0.47900
H770        H  0.66242148  0.33343789  0.75006057    -0.01200
C771        C  0.63509502  0.36359072  0.79754380    -0.14900
C772        C  0.72445926  0.36147616  0.79685806    -0.14600
C773        C  0.63266655  0.27257583  0.79707299    -0.15000
C774        C  0.63462326  0.36345836  0.77672282    -0.15000
C775        C  0.72283488  0.36168267  0.77597781    -0.14600
C776        C  0.63285038  0.27374870  0.77621674    -0.14900
C777        C  0.99770340  0.50089219  0.83191428     0.47800
H778        H  0.99761269  0.50136264  0.81502894    -0.01200
C779        C  0.99862450  0.50017962  0.87162733     0.47900
H780        H  0.99894410  0.49975730  0.88852950    -0.01200
C781        C  0.52786691  0.06000610  0.84195072    -0.14900
C782        C  0.93771652  0.47054144  0.84154250    -0.14600
C783        C  0.52963293  0.47099414  0.84170709    -0.15000
C784        C  0.52701554  0.05972477  0.86281505    -0.15000
C785        C  0.93891597  0.46981222  0.86240939    -0.14600
C786        C  0.52960713  0.47156003  0.86254408    -0.14900
C787        C  0.66676379  0.33444401  0.53986631     0.47800
H788        H  0.66739522  0.33469860  0.55677473    -0.01200
C789        C  0.66517505  0.33345047  0.50016707     0.47900
H790        H  0.66453559  0.33321248  0.48328445    -0.01200
C791        C  0.69434148  0.39344654  0.53036743    -0.14900
C792        C  0.69755228  0.30625584  0.53041428    -0.14600
C793        C  0.60716660  0.30300369  0.53081494    -0.15000
C794        C  0.69362838  0.39373325  0.50950744    -0.15000
C795        C  0.69751053  0.30554794  0.50956572    -0.14600
C796        C  0.60534880  0.30249101  0.50996612    -0.14900
C797        C  0.83383168  0.16933288  0.43475030     0.47800
H798        H  0.83377565  0.16978050  0.41784190    -0.01200
C799        C  0.83408961  0.16869129  0.47446753     0.47900
H800        H  0.83427699  0.16826625  0.49135232    -0.01200
C801        C  0.80343148  0.19783854  0.44429762    -0.14900
C802        C  0.80501633  0.10994407  0.44388647    -0.14600
C803        C  0.89313114  0.19935124  0.44407867    -0.15000
C804        C  0.80285867  0.19771680  0.46515509    -0.15000
C805        C  0.80513109  0.10873175  0.46474580    -0.14600
C806        C  0.89411505  0.19953986  0.46490703    -0.14900
Zn807      Zn  0.87346296  0.24575449  0.58541205     1.49700
Zn808      Zn  0.87329732  0.12749452  0.58588067     1.49400
Zn809      Zn  0.83274585  0.16692262  0.62376393     1.49100
Zn810      Zn  0.75437845  0.12731074  0.58538424     1.49500
O811        O  0.83348549  0.16686036  0.59455452    -1.81800
O812        O  0.94148166  0.26117259  0.56839655    -0.72400
O813        O  0.90046790  0.10060569  0.60998493    -0.72200
O814        O  0.87071813  0.24186454  0.63543096    -0.71700
O815        O  0.94195121  0.17976554  0.56906992    -0.72400
O816        O  0.90213173  0.30061295  0.60922662    -0.72000
O817        O  0.86977762  0.12954848  0.63588856    -0.72600
O818        O  0.69875511  0.09845949  0.60900866    -0.72000
O819        O  0.82075809  0.05909925  0.56914199    -0.72700
O820        O  0.75747245  0.12936791  0.63523093    -0.72100
O821        O  0.73930052  0.05983196  0.56838854    -0.72600
O822        O  0.73842473  0.18016630  0.56893161    -0.72500
O823        O  0.82050361  0.26186798  0.56899389    -0.72300
C824        C  0.96346227  0.23121098  0.56359055     0.79500
C825        C  0.89517919  0.10518978  0.62901206     0.80000
C826        C  0.89689705  0.29141450  0.62829633     0.79000
C827        C  0.70786333  0.10356159  0.62807878     0.79300
C828        C  0.76929746  0.03787317  0.56362060     0.80500
C829        C  0.76855343  0.23204134  0.56397929     0.79500
Zn830      Zn  0.96056199  0.03954206  0.72112782     1.49700
Zn831      Zn  0.95900233  0.42203283  0.72029710     1.49400
Zn832      Zn  0.49871371  0.00025758  0.68253183     1.49100
Zn833      Zn  0.57868465  0.03975988  0.72030470     1.49500
O834        O  0.49922989  0.99927992  0.71169861    -1.81800
O835        O  0.88998995  0.48748972  0.73681824    -0.72400
O836        O  0.93341010  0.36742710  0.69640258    -0.72200
O837        O  0.96154045  0.03770574  0.67123172    -0.71700
O838        O  0.88923114  0.40546014  0.73656729    -0.72400
O839        O  0.93309731  0.06781749  0.69743102    -0.72000
O840        O  0.96400521  0.42644055  0.67028094    -0.72600
O841        O  0.63274526  0.06611613  0.69626294    -0.72000
O842        O  0.51095304  0.40664840  0.73783643    -0.72700
O843        O  0.57308409  0.03627481  0.67030827    -0.72100
O844        O  0.59305031  0.48830498  0.73761092    -0.72600
O845        O  0.59494047  0.10872201  0.73675065    -0.72500
O846        O  0.51203942  0.10640393  0.73767540    -0.72300
C847        C  0.86751192  0.43547432  0.74167079     0.79500
C848        C  0.93915907  0.37680228  0.67735002     0.80000
C849        C  0.93747635  0.06311590  0.67834973     0.79000
C850        C  0.62293127  0.06091900  0.67723729     0.79300
C851        C  0.56278159  0.43678235  0.74298526     0.80500
C852        C  0.56432971  0.12942426  0.74223363     0.79500
C853        C  0.83223825  0.16638673  0.16621014     0.47800
H854        H  0.83159981  0.16622463  0.14932510    -0.01200
C855        C  0.83345215  0.16718650  0.20592099     0.47900
H856        H  0.83410781  0.16753565  0.22282840    -0.01200
C857        C  0.77233201  0.13799831  0.17601099    -0.14900
C858        C  0.86102987  0.13496605  0.17561210    -0.14600
C859        C  0.86349185  0.22656375  0.17559234    -0.15000
C860        C  0.77384811  0.13840153  0.19687227    -0.15000
C861        C  0.86147175  0.13617369  0.19647736    -0.14600
C862        C  0.86371371  0.22621408  0.19640816    -0.14900
C863        C  0.99859670  0.99861318  0.14143871     0.47800
H864        H  0.99864815  0.99912044  0.15832342    -0.01200
C865        C  0.99865710  0.99707862  0.10173212     0.47900
H866        H  0.99858675  0.99641590  0.08482921    -0.01200
C867        C  0.97001788  0.44043137  0.13217686    -0.14900
C868        C  0.96848722  0.02826236  0.13163096    -0.14600
C869        C  0.55930666  0.03139957  0.13157422    -0.15000
C870        C  0.96978179  0.44044452  0.11135927    -0.15000
C871        C  0.96827137  0.02642361  0.11078029    -0.14600
C872        C  0.55883155  0.03150312  0.11070943    -0.14900
Zn873      Zn  0.62040269  0.25573139  0.93899775     1.49700
Zn874      Zn  0.66506128  0.33318766  0.89891263     1.49400
Zn875      Zn  0.63355715  0.37844318  0.93878257     1.49100
Zn876      Zn  0.74306991  0.36479273  0.93873368     1.49500
O877        O  0.66545702  0.33300450  0.92866378    -1.81800
O878        O  0.58844198  0.19904728  0.91627362    -0.72400
O879        O  0.62549429  0.37486155  0.88827287    -0.72200
O880        O  0.56777182  0.33365545  0.95699311    -0.71700
O881        O  0.62242548  0.25205285  0.88836761    -0.72400
O882        O  0.55936412  0.24851731  0.95771138    -0.72000
O883        O  0.60751006  0.40964204  0.91611177    -0.72600
O884        O  0.76457501  0.43078756  0.95677183    -0.72000
O885        O  0.74640366  0.37227683  0.88816611    -0.72700
O886        O  0.68778684  0.43930891  0.95751438    -0.72100
O887        O  0.79950509  0.38988395  0.91597884    -0.72600
O888        O  0.75101251  0.31149842  0.95754364    -0.72500
O889        O  0.66553269  0.23484895  0.95723221    -0.72300
C890        C  0.59411480  0.20401710  0.89706163     0.79500
C891        C  0.60570786  0.40308658  0.89692526     0.80000
C892        C  0.54503409  0.28365470  0.96389221     0.79000
C893        C  0.73736210  0.45348827  0.96369516     0.79300
C894        C  0.79454505  0.39155180  0.89680848     0.80500
C895        C  0.71584955  0.26218274  0.96395296     0.79500
Zn896      Zn  0.88220598  0.24518965  0.03558789     1.49700
Zn897      Zn  0.75764092  0.13877814  0.03524195     1.49400
Zn898      Zn  0.86458232  0.12113017  0.03507516     1.49100
Zn899      Zn  0.83385168  0.16616820  0.07522187     1.49500
O900        O  0.83460031  0.16778583  0.04549014    -1.81800
O901        O  0.84070392  0.26765328  0.01624705    -0.72400
O902        O  0.73404813  0.07224413  0.01711022    -0.72200
O903        O  0.93020909  0.16483921  0.01665824    -0.71700
O904        O  0.75335798  0.19386609  0.01630744    -0.72400
O905        O  0.94507267  0.25249100  0.01793823    -0.72000
O906        O  0.80905152  0.06075029  0.01663978    -0.72600
O907        O  0.87344950  0.12399634  0.08557150    -0.72000
O908        O  0.70054809  0.11488235  0.05784698    -0.72700
O909        O  0.88967629  0.08871501  0.05746729    -0.72100
O910        O  0.75212573  0.12624106  0.08562215    -0.72600
O911        O  0.87438916  0.24711419  0.08612725    -0.72500
O912        O  0.91037078  0.30095358  0.05849229    -0.72300
C913        C  0.79037403  0.24202693  0.00951452     0.79500
C914        C  0.75995380  0.04796585  0.01035831     0.80000
C915        C  0.95613093  0.21589753  0.01077001     0.79000
C916        C  0.89203274  0.09500799  0.07665809     0.79300
C917        C  0.70455706  0.11005000  0.07692296     0.80500
C918        C  0.90251456  0.29544935  0.07760158     0.79500
C919        C  0.77590531  0.26797437  0.99274191    -0.14100
C920        C  0.73195361  0.23663963  0.98037512    -0.29200
H921        H  0.80339820  0.31292609  0.98989200     0.15000
H922        H  0.70472807  0.19164963  0.98323477     0.15500
C923        C  0.76332049  0.49477454  0.98014005    -0.14100
C924        C  0.73335277  0.00647421  0.99397398    -0.29200
H925        H  0.80890107  0.51480104  0.98225864     0.15000
H926        H  0.68806584  0.98803988  0.99150606     0.15500
C927        C  0.50346618  0.26791089  0.98027764    -0.14100
C928        C  0.99705450  0.23144422  0.99419882    -0.29200
H929        H  0.48452365  0.29421748  0.98271095     0.15000
H930        H  0.01737052  0.20631721  0.99197585     0.15500
C931        C  0.92559630  0.34584872  0.08973721    -0.10900
C932        C  0.94532819  0.38928148  0.09931614    -0.12500
C933        C  0.91745671  0.06917070  0.08845647    -0.10900
C934        C  0.94039402  0.04872294  0.09815469    -0.12500
C935        C  0.65332532  0.08412213  0.08880691    -0.10900
C936        C  0.60973436  0.06035624  0.09842064    -0.12500
C937        C  0.90314413  0.02725471  0.15890660    -0.11000
C938        C  0.94223758  0.05628279  0.14336412     0.11200
C939        C  0.95334116  0.11096519  0.13813104    -0.11000
C940        C  0.92522199  0.13545128  0.14794097    -0.11000
C941        C  0.88632302  0.10651589  0.16356181     0.11200
C942        C  0.87493957  0.05167754  0.16867897    -0.11000
H943        H  0.89980418  0.48838464  0.16519477     0.15200
H944        H  0.47752967  0.13399698  0.12524465     0.15200
H945        H  0.93494676  0.17750279  0.14361905     0.15200
H946        H  0.84424363  0.02765548  0.18037029     0.15200
C947        C  0.86989671  0.31876678  0.16629150    -0.11000
C948        C  0.88919681  0.28014039  0.16365471     0.11200
C949        C  0.93643322  0.29545416  0.15122664    -0.11000
C950        C  0.96393002  0.34840426  0.14162681    -0.11000
C951        C  0.94460066  0.38702324  0.14423461     0.11200
C952        C  0.89728270  0.37163995  0.15663828    -0.11000
H953        H  0.83359929  0.30792735  0.17589581     0.15200
H954        H  0.95304715  0.26723122  0.14937733     0.15200
H955        H  0.50035350  0.35790831  0.13259747     0.15200
H956        H  0.88040694  0.39965198  0.15838561     0.15200
C957        C  0.70801608  0.07194026  0.14910341    -0.11000
C958        C  0.71826549  0.11199626  0.16423716     0.11200
C959        C  0.67532760  0.12455779  0.16892962    -0.11000
C960        C  0.62297492  0.09709082  0.15883554    -0.11000
C961        C  0.61288204  0.05720199  0.14363564     0.11200
C962        C  0.65570050  0.04444652  0.13904673    -0.11000
H963        H  0.74003699  0.06102295  0.14538332     0.15200
H964        H  0.68240550  0.15584471  0.18040240     0.15200
H965        H  0.59091897  0.10798028  0.16253118     0.15200
H966        H  0.64968600  0.51396468  0.12704769     0.15200
C967        C  0.91873494  0.08203057  0.64361499    -0.14100
C968        C  0.91435040  0.08710083  0.66388364    -0.29200
H969        H  0.93987367  0.06039585  0.63760246     0.15000
H970        H  0.89334716  0.10884775  0.66991457     0.15500
C971        C  0.92125419  0.33867484  0.64266768    -0.14100
C972        C  0.91642414  0.32962844  0.66294718    -0.29200
H973        H  0.94292232  0.38135436  0.63651654     0.15000
H974        H  0.89484075  0.28694014  0.66909246     0.15500
C975        C  0.66054392  0.07941789  0.64246002    -0.14100
C976        C  0.66986118  0.08397467  0.66272384    -0.29200
H977        H  0.61773480  0.05794039  0.63636264     0.15000
H978        H  0.71268966  0.10535739  0.66880034     0.15500
C979        C  0.72026603  0.44406514  0.54268159    -0.10900
C980        C  0.74191234  0.48721416  0.55244146    -0.12500
C981        C  0.51473650  0.25308086  0.55348309    -0.10900
C982        C  0.55753949  0.27545559  0.54355027    -0.12500
C983        C  0.72182194  0.28010953  0.54281661    -0.10900
C984        C  0.74291134  0.25800414  0.55253662    -0.12500
C985        C  0.70594367  0.48984533  0.50174798    -0.11000
C986        C  0.71867094  0.44695274  0.49730101     0.11200
C987        C  0.75841629  0.45665351  0.48207861    -0.11000
C988        C  0.79091179  0.01158983  0.47173004    -0.11000
C989        C  0.77891699  0.05479666  0.47653656     0.11200
C990        C  0.73852883  0.04459128  0.49155247    -0.11000
H991        H  0.67477749  0.48313424  0.51324600     0.15200
H992        H  0.76937316  0.42461024  0.47851678     0.15200
H993        H  0.82243815  0.01861918  0.46034060     0.15200
H994        H  0.72803239  0.07683235  0.49534722     0.15200
C995        C  0.54174845  0.23813772  0.48238797    -0.11000
C996        C  0.55107070  0.27608276  0.49820455     0.11200
C997        C  0.50698971  0.28642642  0.50345721    -0.11000
C998        C  0.96147706  0.26938234  0.49049798    -0.11000
C999        C  0.94800419  0.22524238  0.47674487     0.11200
C1000       C  0.98834604  0.20864142  0.47302719    -0.11000
H1001       H  0.57422506  0.22877446  0.47804208     0.15200
H1002       H  0.51299810  0.31618012  0.51540149     0.15200
H1003       H  0.93217746  0.28422022  0.49321690     0.15200
H1004       H  0.97908319  0.17473171  0.46243961     0.15200
C1005       C  0.69511730  0.23853130  0.48272254    -0.11000
C1006       C  0.72531150  0.27957913  0.49755826     0.11200
C1007       C  0.78102042  0.29244707  0.50207118    -0.11000
C1008       C  0.80525957  0.26420584  0.49222510    -0.11000
C1009       C  0.77512394  0.22350129  0.47726458     0.11200
C1010       C  0.71942372  0.21054723  0.47279133    -0.11000
H1011       H  0.65206482  0.22676697  0.47911554     0.15200
H1012       H  0.80578766  0.32432095  0.51332012     0.15200
H1013       H  0.84802576  0.27527423  0.49601578     0.15200
H1014       H  0.69466537  0.17865902  0.46154813     0.15200
C1015       C  0.84532591  0.41726988  0.88472346    -0.10900
C1016       C  0.88854754  0.44089686  0.87492267    -0.12500
C1017       C  0.55642349  0.44753234  0.87487507    -0.10900
C1018       C  0.57950167  0.42757148  0.88477854    -0.12500
C1019       C  0.56866661  0.15345803  0.88492744    -0.10900
C1020       C  0.54890855  0.11045646  0.87506152    -0.12500
C1021       C  0.77276927  0.38800142  0.76317053    -0.10900
C1022       C  0.81573261  0.40973552  0.75319552    -0.12500
C1023       C  0.58827227  0.41148535  0.75494614    -0.10900
C1024       C  0.60970427  0.38974155  0.76470705    -0.12500
C1025       C  0.58958661  0.18075852  0.75381664    -0.10900
C1026       C  0.60967110  0.22363807  0.76369245    -0.12500
C1027       C  0.64078660  0.43804143  0.82155835    -0.11000
C1028       C  0.60794698  0.38959907  0.80975468     0.11200
C1029       C  0.54941230  0.36904982  0.80803327    -0.11000
C1030       C  0.52422461  0.39631993  0.81795526    -0.11000
C1031       C  0.55703115  0.44476773  0.82975088     0.11200
C1032       C  0.61556397  0.46526936  0.83151421    -0.11000
H1033       H  0.68609059  0.45579702  0.82262769     0.15200
H1034       H  0.52324684  0.33191888  0.79889835     0.15200
H1035       H  0.47895410  0.37871331  0.81681119     0.15200
H1036       H  0.64173207  0.50246986  0.84061467     0.15200
C1037       C  0.82358649  0.37926330  0.80322202    -0.11000
C1038       C  0.77854163  0.38784173  0.80874176     0.11200
C1039       C  0.78659787  0.42432687  0.82497397    -0.11000
C1040       C  0.83881603  0.45281922  0.83505588    -0.10400
C1041       C  0.88383261  0.44421189  0.82954978     0.11200
C1042       C  0.87584860  0.40780533  0.81329763    -0.11000
H1043       H  0.81836961  0.35023300  0.79111088     0.15200
H1044       H  0.75294104  0.43172505  0.82964883     0.15200
H1045       H  0.85369002  0.99345674  0.84425716     0.15200
H1046       H  0.90952332  0.40038554  0.80864950     0.15200
C1047       C  0.63566267  0.20849799  0.82391448    -0.11000
C1048       C  0.60510518  0.21864869  0.80900402     0.11200
C1049       C  0.54916594  0.17568953  0.80466912    -0.11000
C1050       C  0.52463152  0.12349876  0.81485192    -0.11000
C1051       C  0.55520830  0.11347963  0.82979881     0.11200
C1052       C  0.61114010  0.15636049  0.83409179    -0.11000
H1053       H  0.67891857  0.24048398  0.82738409     0.15200
H1054       H  0.52434682  0.18261454  0.79338419     0.15200
H1055       H  0.48136095  0.09147758  0.81141207     0.15200
H1056       H  0.63588812  0.14947453  0.84542029     0.15200
C1057       C  0.88962754  0.27700889  0.20862972    -0.10900
C1058       C  0.91096913  0.32006676  0.21844164    -0.12500
C1059       C  0.90792857  0.08952107  0.21883215    -0.10900
C1060       C  0.88695611  0.11141513  0.20894309    -0.12500
C1061       C  0.72398632  0.11190703  0.20960877    -0.10900
C1062       C  0.68148100  0.08984711  0.21976236    -0.12500
C1063       C  0.58006069  0.41864008  0.33050020    -0.14100
C1064       C  0.58466083  0.41452233  0.31021917    -0.29200
H1065       H  0.55827476  0.43940658  0.33671529     0.15000
H1066       H  0.60638561  0.39370197  0.30400377     0.15500
C1067       C  0.57988440  0.16160950  0.33064642    -0.14100
C1068       C  0.58503443  0.17086745  0.31038365    -0.29200
H1069       H  0.55834595  0.11887404  0.33674929     0.15000
H1070       H  0.60666325  0.21360252  0.30428082     0.15500
C1071       C  0.82988897  0.41178001  0.31053652    -0.14100
C1072       C  0.83896552  0.41687080  0.33081560    -0.29200
H1073       H  0.78712087  0.38983172  0.30441163     0.15000
H1074       H  0.88172081  0.43867060  0.33695883     0.15500
C1075       C  0.75634403  0.01698772  0.42132843    -0.10900
C1076       C  0.77840317  0.05987846  0.43125716    -0.12500
C1077       C  0.94344056  0.22450646  0.43163967    -0.10900
C1078       C  0.98622799  0.24497564  0.42169961    -0.12500
C1079       C  0.75749553  0.24512714  0.42200833    -0.10900
C1080       C  0.77898461  0.22383084  0.43194200    -0.12500
Zn1081     Zn  0.62763411  0.75571361  0.38860193     1.49700
Zn1082     Zn  0.66517278  0.83338912  0.35026569     1.49400
Zn1083     Zn  0.62618340  0.87363823  0.38834020     1.49100
Zn1084     Zn  0.74551162  0.87540692  0.38814494     1.49500
O1085       O  0.66614048  0.83459061  0.37942256    -1.81800
O1086       O  0.59939105  0.69979991  0.36505392    -0.72400
O1087       O  0.62570888  0.86841189  0.33846329    -0.72200
O1088       O  0.55874259  0.82080428  0.40538340    -0.71700
O1089       O  0.62876038  0.75837044  0.33883685    -0.72400
O1090       O  0.55984234  0.73964061  0.40567950    -0.72000
O1091       O  0.59683879  0.89896044  0.36442275    -0.72600
O1092       O  0.76109785  0.94413473  0.40465642    -0.72000
O1093       O  0.73959411  0.87171161  0.33819230    -0.72700
O1094       O  0.67877217  0.94309385  0.40476521    -0.72100
O1095       O  0.79950479  0.90239555  0.36408505    -0.72600
O1096       O  0.76285041  0.82391010  0.40485700    -0.72500
O1097       O  0.68161482  0.74137190  0.40496698    -0.72300
C1098       C  0.60402403  0.70885304  0.34598008     0.79500
C1099       C  0.60062134  0.89301113  0.34539366     0.80000
C1100       C  0.53771571  0.76929979  0.41069485     0.79000
C1101       C  0.73079207  0.96554142  0.40973117     0.79300
C1102       C  0.78949716  0.89705259  0.34507041     0.80500
C1103       C  0.73350475  0.77202312  0.40989911     0.79500
Zn1104     Zn  0.53870328  0.95975153  0.25299541     1.49700
Zn1105     Zn  0.53793753  0.58014307  0.25363213     1.49400
Zn1106     Zn  0.91829801  0.95958383  0.25274900     1.49100
Zn1107     Zn  0.49926131  0.99949131  0.29113200     1.49500
O1108       O  0.49956146  0.99966969  0.26192819    -1.81800
O1109       O  0.60587685  0.51444187  0.23643813    -0.72400
O1110       O  0.98647869  0.59443544  0.23639619    -0.72200
O1111       O  0.90255795  0.89108457  0.23606316    -0.71700
O1112       O  0.60643785  0.59640553  0.23685740    -0.72400
O1113       O  0.98461198  0.89154828  0.23626457    -0.72000
O1114       O  0.90447180  0.51265815  0.23684521    -0.72600
O1115       O  0.92304769  0.96257724  0.30265569    -0.72000
O1116       O  0.56507958  0.63415439  0.27771526    -0.72700
O1117       O  0.86352910  0.93241545  0.27664428    -0.72100
O1118       O  0.53633598  0.57449618  0.30364119    -0.72600
O1119       O  0.53580076  0.96142324  0.30290086    -0.72500
O1120       O  0.56360222  0.92991521  0.27691244    -0.72300
C1121       C  0.62781025  0.56630028  0.23150974     0.79500
C1122       C  0.93425600  0.56448405  0.23171053     0.80000
C1123       C  0.93286481  0.86962250  0.23105443     0.79000
C1124       C  0.87324326  0.93755371  0.29568336     0.79300
C1125       C  0.56080306  0.62428743  0.29674167     0.80500
C1126       C  0.55908083  0.93506134  0.29595377     0.79500
C1127       C  0.66597365  0.83384890  0.80709736     0.47800
H1128       H  0.66552469  0.83349881  0.82398257    -0.01200
C1129       C  0.66686389  0.83425284  0.76739559     0.47900
H1130       H  0.66738321  0.83459013  0.75048788    -0.01200
C1131       C  0.63686792  0.86477339  0.79751584    -0.14900
C1132       C  0.72636910  0.86258251  0.79777997    -0.14600
C1133       C  0.63453249  0.77380628  0.79744750    -0.15000
C1134       C  0.63806963  0.86476419  0.77664728    -0.15000
C1135       C  0.72598289  0.86240347  0.77694511    -0.14600
C1136       C  0.63553711  0.77487183  0.77657838    -0.14900
C1137       C  0.00032359  0.00197794  0.83274869     0.47800
H1138       H  0.00066456  0.00258927  0.81586560    -0.01200
C1139       C  0.99940276  0.00085189  0.87244993     0.47900
H1140       H  0.99893176  0.00031255  0.88935572    -0.01200
C1141       C  0.52966746  0.56083392  0.84177179    -0.14900
C1142       C  0.93991157  0.97043542  0.84210838    -0.14600
C1143       C  0.53130382  0.97199819  0.84224513    -0.15000
C1144       C  0.52858518  0.56004132  0.86263948    -0.15000
C1145       C  0.94019575  0.96997427  0.86294773    -0.14600
C1146       C  0.53119175  0.97298451  0.86313682    -0.14900
C1147       C  0.66599398  0.83504432  0.53870482     0.47800
H1148       H  0.66558913  0.83505376  0.55561276    -0.01200
C1149       C  0.66679176  0.83486476  0.49898953     0.47900
H1150       H  0.66697127  0.83491279  0.48210353    -0.01200
C1151       C  0.69533991  0.89415412  0.52935315    -0.14900
C1152       C  0.69649730  0.80613192  0.52957697    -0.14600
C1153       C  0.60691643  0.80510358  0.52916690    -0.15000
C1154       C  0.69576396  0.89500837  0.50849490    -0.15000
C1155       C  0.69760155  0.80588119  0.50869688    -0.14600
C1156       C  0.60655671  0.80436933  0.50835600    -0.14900
C1157       C  0.83164126  0.66623088  0.43442026     0.47800
H1158       H  0.83237911  0.66673189  0.41751361    -0.01200
C1159       C  0.82994452  0.66532626  0.47413069     0.47900
H1160       H  0.82940386  0.66485539  0.49101551    -0.01200
C1161       C  0.80209904  0.69601059  0.44363144    -0.14900
C1162       C  0.80120169  0.60680799  0.44358626    -0.14600
C1163       C  0.89052416  0.69505751  0.44407230    -0.15000
C1164       C  0.80021438  0.69543600  0.46448006    -0.15000
C1165       C  0.80017356  0.60546865  0.46444875    -0.14600
C1166       C  0.89043995  0.69498356  0.46490133    -0.14900
Zn1167     Zn  0.87247793  0.74775809  0.58597763     1.49700
Zn1168     Zn  0.87241604  0.62924080  0.58551172     1.49400
Zn1169     Zn  0.83258322  0.66716257  0.62384620     1.49100
Zn1170     Zn  0.75377927  0.62915785  0.58562502     1.49500
O1171       O  0.83285082  0.66845763  0.59466701    -1.81800
O1172       O  0.94083884  0.76385499  0.56904390    -0.72400
O1173       O  0.90111492  0.60233296  0.60908225    -0.72200
O1174       O  0.86955146  0.74131610  0.63600228    -0.71700
O1175       O  0.93998624  0.68173768  0.56853782    -0.72400
O1176       O  0.89993185  0.80141412  0.61017674    -0.72000
O1177       O  0.87031337  0.62996642  0.63530324    -0.72600
O1178       O  0.69879441  0.60201490  0.60941689    -0.72000
O1179       O  0.81954318  0.56057379  0.56901122    -0.72700
O1180       O  0.75776249  0.62898643  0.63555396    -0.72100
O1181       O  0.73767592  0.56046266  0.56902717    -0.72600
O1182       O  0.73822052  0.68177594  0.56884740    -0.72500
O1183       O  0.81966511  0.76406388  0.56939581    -0.72300
C1184       C  0.96199916  0.73360622  0.56361206     0.79500
C1185       C  0.89595101  0.60617471  0.62814624     0.80000
C1186       C  0.89469878  0.79119669  0.62918878     0.79000
C1187       C  0.70811566  0.60533982  0.62846771     0.79300
C1188       C  0.76764853  0.53865560  0.56399157     0.80500
C1189       C  0.76800462  0.73379806  0.56404436     0.79500
Zn1190     Zn  0.95930289  0.54039512  0.72032581     1.49700
Zn1191     Zn  0.96209503  0.92155727  0.72127288     1.49400
Zn1192     Zn  0.49820922  0.49949491  0.68196623     1.49100
Zn1193     Zn  0.57750967  0.54032299  0.72040782     1.49500
O1194       O  0.49838852  0.50056850  0.71123161    -1.81800
O1195       O  0.89235767  0.98619758  0.73785200    -0.72400
O1196       O  0.93429663  0.86563150  0.69765774    -0.72200
O1197       O  0.96242563  0.53807365  0.67023658    -0.71700
O1198       O  0.89380659  0.90521195  0.73833751    -0.72400
O1199       O  0.93239399  0.56735444  0.69627033    -0.72000
O1200       O  0.95828107  0.92418590  0.67151172    -0.72600
O1201       O  0.63241286  0.56674232  0.69660997    -0.72000
O1202       O  0.51481231  0.90509194  0.73658156    -0.72700
O1203       O  0.57335609  0.53653726  0.67044948    -0.72100
O1204       O  0.59534763  0.98830442  0.73721025    -0.72600
O1205       O  0.59373621  0.60931284  0.73688750    -0.72500
O1206       O  0.51192749  0.60924008  0.73685617    -0.72300
C1207       C  0.87135916  0.93472103  0.74322402     0.79500
C1208       C  0.93611620  0.87473238  0.67860961     0.80000
C1209       C  0.93739070  0.56269309  0.67723511     0.79000
C1210       C  0.62303111  0.56155124  0.67755216     0.79300
C1211       C  0.56630653  0.93621717  0.74199718     0.80500
C1212       C  0.56377130  0.63105712  0.74199418     0.79500
C1213       C  0.83177654  0.66516288  0.16706863     0.47800
H1214       H  0.83201434  0.66509372  0.15018447    -0.01200
C1215       C  0.83102391  0.66589417  0.20676300     0.47900
H1216       H  0.83076716  0.66630798  0.22367027    -0.01200
C1217       C  0.77134893  0.63720885  0.17639965    -0.14900
C1218       C  0.85980109  0.63343830  0.17686953    -0.14600
C1219       C  0.86303434  0.72532002  0.17644511    -0.15000
C1220       C  0.77189879  0.63768263  0.19727169    -0.15000
C1221       C  0.85935402  0.63460885  0.19775251    -0.14600
C1222       C  0.86209824  0.72490897  0.19725712    -0.14900
C1223       C  0.99984961  0.50073876  0.14143584     0.47800
H1224       H  0.00073326  0.50114556  0.15831905    -0.01200
C1225       C  0.99817851  0.49943193  0.10171942     0.47900
H1226       H  0.99732046  0.49879688  0.08481766    -0.01200
C1227       C  0.96922875  0.93819664  0.13223349    -0.14900
C1228       C  0.96929516  0.53037389  0.13203156    -0.14600
C1229       C  0.55854365  0.52969414  0.13137966    -0.15000
C1230       C  0.96987190  0.93806316  0.11140119    -0.15000
C1231       C  0.96799960  0.52847495  0.11116555    -0.14600
C1232       C  0.55750184  0.52911368  0.11051781    -0.14900
Zn1233     Zn  0.61916675  0.75666393  0.93893039     1.49700
Zn1234     Zn  0.66588653  0.83426442  0.89926607     1.49400
Zn1235     Zn  0.63539547  0.88058183  0.93929946     1.49100
Zn1236     Zn  0.74328858  0.86496216  0.93925790     1.49500
O1237       O  0.66598648  0.83412792  0.92900523    -1.81800
O1238       O  0.58844514  0.69985970  0.91614593    -0.72400
O1239       O  0.62565028  0.87548624  0.88885736    -0.72200
O1240       O  0.56920193  0.83642889  0.95736495    -0.71700
O1241       O  0.62471456  0.75295215  0.88841466    -0.72400
O1242       O  0.55760126  0.74996313  0.95719941    -0.72000
O1243       O  0.61021171  0.91233913  0.91670951    -0.72600
O1244       O  0.76500539  0.93017462  0.95789515    -0.72000
O1245       O  0.74734856  0.87468433  0.88870964    -0.72700
O1246       O  0.68957602  0.94092634  0.95819599    -0.72100
O1247       O  0.80030545  0.89098114  0.91649425    -0.72600
O1248       O  0.74928427  0.80994853  0.95774745    -0.72500
O1249       O  0.66255929  0.73496605  0.95758066    -0.72300
C1250       C  0.59575889  0.70478244  0.89699374     0.79500
C1251       C  0.60711099  0.90474122  0.89757470     0.80000
C1252       C  0.54481264  0.78589069  0.96378073     0.79000
C1253       C  0.73850338  0.95378228  0.96469415     0.79300
C1254       C  0.79544927  0.89357607  0.89733380     0.80500
C1255       C  0.71294764  0.76113270  0.96425773     0.79500
Zn1256     Zn  0.87927369  0.74242225  0.03511158     1.49700
Zn1257     Zn  0.75481622  0.63545482  0.03478862     1.49400
Zn1258     Zn  0.86187549  0.61816083  0.03504819     1.49100
Zn1259     Zn  0.83102443  0.66460939  0.07482266     1.49500
O1260       O  0.83182447  0.66520145  0.04511094    -1.81800
O1261       O  0.83641071  0.76537732  0.01661795    -0.72400
O1262       O  0.73180427  0.56940603  0.01659534    -0.72200
O1263       O  0.92847153  0.66138989  0.01690217    -0.71700
O1264       O  0.74975014  0.69042433  0.01612182    -0.72400
O1265       O  0.94000587  0.74783379  0.01658264    -0.72000
O1266       O  0.80690476  0.55806406  0.01629457    -0.72600
O1267       O  0.87001254  0.62264473  0.08559486    -0.72000
O1268       O  0.69767458  0.61091884  0.05725560    -0.72700
O1269       O  0.88577719  0.58573990  0.05783550    -0.72100
O1270       O  0.74964443  0.62523878  0.08515684    -0.72600
O1271       O  0.87229309  0.74544115  0.08562983    -0.72500
O1272       O  0.91047017  0.79875516  0.05804261    -0.72300
C1273       C  0.78618093  0.73936995  0.00978163     0.79500
C1274       C  0.75794396  0.54538332  0.00987042     0.80000
C1275       C  0.95267943  0.71164432  0.01017440     0.79000
C1276       C  0.88827173  0.59303513  0.07698132     0.79300
C1277       C  0.70196349  0.60756385  0.07638337     0.80500
C1278       C  0.90213167  0.79355894  0.07715307     0.79500
C1279       C  0.77138121  0.76583706  0.99332018    -0.14100
C1280       C  0.72795564  0.73486447  0.98072021    -0.29200
H1281       H  0.79865762  0.81096035  0.99074687     0.15000
H1282       H  0.70067041  0.68974639  0.98331216     0.15500
C1283       C  0.76455837  0.99483250  0.98123511    -0.14100
C1284       C  0.73168109  0.50431765  0.99337368    -0.29200
H1285       H  0.80985243  0.01335225  0.98371819     0.15000
H1286       H  0.68611815  0.48445229  0.99125591     0.15500
C1287       C  0.50332347  0.77028891  0.98016766    -0.14100
C1288       C  0.99384941  0.72668728  0.99365185    -0.29200
H1289       H  0.48388632  0.79618985  0.98249702     0.15000
H1290       H  0.01384282  0.70122260  0.99153385     0.15500
C1291       C  0.92636166  0.84392302  0.08941109    -0.10900
C1292       C  0.94609277  0.88690170  0.09930355    -0.12500
C1293       C  0.91407721  0.56818835  0.08906406    -0.10900
C1294       C  0.93823139  0.54920161  0.09883058    -0.12500
C1295       C  0.65099853  0.58162842  0.08828622    -0.10900
C1296       C  0.60784576  0.55784857  0.09806568    -0.12500
C1297       C  0.90698886  0.52930112  0.16048736    -0.11000
C1298       C  0.94320138  0.55781207  0.14416648     0.11200
C1299       C  0.95154487  0.61130787  0.13863635    -0.11000
C1300       C  0.92294685  0.63475632  0.14874056    -0.11000
C1301       C  0.88647541  0.60611102  0.16499416     0.11200
C1302       C  0.87818085  0.55262394  0.17053493    -0.11000
H1303       H  0.89349432  0.98524592  0.16325278     0.15200
H1304       H  0.48296140  0.63492601  0.12556819     0.15200
H1305       H  0.93021440  0.67575680  0.14405232     0.15200
H1306       H  0.84912363  0.52855530  0.18263576     0.15200
C1307       C  0.86850777  0.81654069  0.16628438    -0.11000
C1308       C  0.88924874  0.77887819  0.16445979     0.11200
C1309       C  0.93777713  0.79492960  0.15264974    -0.11000
C1310       C  0.96475240  0.84744482  0.14269383    -0.11000
C1311       C  0.94381480  0.88499223  0.14443680     0.11200
C1312       C  0.89550528  0.86904258  0.15635363    -0.11000
H1313       H  0.83130718  0.80519110  0.17544075     0.15200
H1314       H  0.95561377  0.76755416  0.15150184     0.15200
H1315       H  0.50471890  0.86304040  0.13375506     0.15200
H1316       H  0.87765833  0.89637731  0.15752477     0.15200
C1317       C  0.70829976  0.57251129  0.14882446    -0.11000
C1318       C  0.71777612  0.61174346  0.16421305     0.11200
C1319       C  0.67434462  0.62371859  0.16879642    -0.11000
C1320       C  0.62210222  0.59591714  0.15861196    -0.11000
C1321       C  0.61253862  0.55641987  0.14331701     0.11200
C1322       C  0.65612889  0.54480779  0.13861937    -0.11000
H1323       H  0.74070498  0.56215208  0.14508033     0.15200
H1324       H  0.68082299  0.65466857  0.18032518     0.15200
H1325       H  0.58961766  0.60615796  0.16236399     0.15200
H1326       H  0.64864697  0.01315863  0.12757656     0.15200
C1327       C  0.91975205  0.58275907  0.64251234    -0.14100
C1328       C  0.91393189  0.58615216  0.66276603    -0.29200
H1329       H  0.94214213  0.56248999  0.63640721     0.15000
H1330       H  0.89160139  0.60649998  0.66885678     0.15500
C1331       C  0.91784618  0.83763049  0.64386392    -0.14100
C1332       C  0.91282450  0.82777245  0.66411414    -0.29200
H1333       H  0.93927077  0.88053685  0.63791857     0.15000
H1334       H  0.89180796  0.78490069  0.67008678     0.15500
C1335       C  0.66094565  0.58160779  0.64287919    -0.14100
C1336       C  0.67020012  0.58494248  0.66314069    -0.29200
H1337       H  0.61817012  0.56136531  0.63677298     0.15000
H1338       H  0.71298036  0.60539536  0.66924999     0.15500
C1339       C  0.72194568  0.94430019  0.54184297    -0.10900
C1340       C  0.74394457  0.98701996  0.55180154    -0.12500
C1341       C  0.51296902  0.75997342  0.55112439    -0.10900
C1342       C  0.55610558  0.78057256  0.54135976    -0.12500
C1343       C  0.72061317  0.78038209  0.54231734    -0.10900
C1344       C  0.74217726  0.75921340  0.55233719    -0.12500
C1345       C  0.70996067  0.99195402  0.50131380    -0.11000
C1346       C  0.72203418  0.94877885  0.49657170     0.11200
C1347       C  0.76239016  0.95893905  0.48152591    -0.11000
C1348       C  0.78590933  0.50861478  0.47184046    -0.11000
C1349       C  0.77346586  0.55163805  0.47633679     0.11200
C1350       C  0.73341775  0.54184584  0.49147841    -0.11000
H1351       H  0.67835213  0.98494002  0.51266408     0.15200
H1352       H  0.77287786  0.92668923  0.47773697     0.15200
H1353       H  0.81730416  0.51537163  0.46043595     0.15200
H1354       H  0.72265269  0.57400682  0.49508108     0.15200
C1355       C  0.53676382  0.72953260  0.48469330    -0.11000
C1356       C  0.55293047  0.77816939  0.49640031     0.11200
C1357       C  0.51501607  0.79858536  0.49836829    -0.11000
C1358       C  0.95777955  0.76587837  0.49012241    -0.11000
C1359       C  0.94380106  0.72035633  0.47700341     0.11200
C1360       C  0.98363873  0.70277391  0.47386104    -0.11000
H1361       H  0.56426580  0.71186728  0.48347836     0.15200
H1362       H  0.52645194  0.83584600  0.50746076     0.15200
H1363       H  0.92890663  0.78147273  0.49233908     0.15200
H1364       H  0.97387686  0.66772801  0.46376748     0.15200
C1365       C  0.69557248  0.74180430  0.48085302    -0.11000
C1366       C  0.72479469  0.77929177  0.49678730     0.11200
C1367       C  0.77874308  0.78847863  0.50214344    -0.11000
C1368       C  0.80192572  0.75936558  0.49229957    -0.11000
C1369       C  0.77282502  0.72191710  0.47636747     0.11200
C1370       C  0.71891617  0.71284955  0.47094351    -0.11000
H1371       H  0.65424555  0.73398921  0.47629413     0.15200
H1372       H  0.80313251  0.81827714  0.51401152     0.15200
H1373       H  0.84310982  0.76715585  0.49691476     0.15200
H1374       H  0.69474983  0.68329864  0.45897817     0.15200
C1375       C  0.84615932  0.91938527  0.88516606    -0.10900
C1376       C  0.88922655  0.94219726  0.87523890    -0.12500
C1377       C  0.55760005  0.94912476  0.87572416    -0.10900
C1378       C  0.58070974  0.92919128  0.88559059    -0.12500
C1379       C  0.57116812  0.65401464  0.88485191    -0.10900
C1380       C  0.55127932  0.61076010  0.87505075    -0.12500
C1381       C  0.77681641  0.88762111  0.76468296    -0.10900
C1382       C  0.82007496  0.90891671  0.75493587    -0.12500
C1383       C  0.59268063  0.91174175  0.75386211    -0.10900
C1384       C  0.61425270  0.89087986  0.76400763    -0.12500
C1385       C  0.58946818  0.68210047  0.75385380    -0.10900
C1386       C  0.61090390  0.72472987  0.76394836    -0.12500
C1387       C  0.63855663  0.93006647  0.82491472    -0.11000
C1388       C  0.60906460  0.89087050  0.80946508     0.11200
C1389       C  0.55393402  0.87930364  0.80461522    -0.11000
C1390       C  0.52955692  0.90708426  0.81472126    -0.11000
C1391       C  0.55915222  0.94619069  0.83020862     0.11200
C1392       C  0.61436468  0.95800393  0.83495452    -0.11000
H1393       H  0.68084624  0.94020728  0.82899650     0.15200
H1394       H  0.52958668  0.84860751  0.79297498     0.15200
H1395       H  0.48715176  0.89711667  0.81068298     0.15200
H1396       H  0.63894637  0.98899031  0.84647972     0.15200
C1397       C  0.82114784  0.87260258  0.80629493    -0.11000
C1398       C  0.78005037  0.88835303  0.80986476     0.11200
C1399       C  0.79264475  0.93201071  0.82373739    -0.11000
C1400       C  0.84511682  0.95972236  0.83367708    -0.10400
C1401       C  0.88624070  0.94410670  0.83006975     0.11200
C1402       C  0.87366756  0.90027206  0.81626521    -0.11000
H1403       H  0.81253226  0.83879802  0.79574334     0.15200
H1404       H  0.76274666  0.94604172  0.82648228     0.15200
H1405       H  0.84399308  0.48169824  0.84722278     0.15200
H1406       H  0.90356812  0.88614142  0.81361774     0.15200
C1407       C  0.63745924  0.70974893  0.82421103    -0.11000
C1408       C  0.60687380  0.71999344  0.80934339     0.11200
C1409       C  0.55108472  0.67705555  0.80488083    -0.11000
C1410       C  0.52669385  0.62468565  0.81488365    -0.11000
C1411       C  0.55723183  0.61451661  0.82979275     0.11200
C1412       C  0.61305270  0.65740947  0.83422533    -0.11000
H1413       H  0.68065851  0.74178082  0.82774173     0.15200
H1414       H  0.52630667  0.68409941  0.79361396     0.15200
H1415       H  0.48351426  0.59262587  0.81134539     0.15200
H1416       H  0.63778204  0.65037839  0.84551885     0.15200
C1417       C  0.88708158  0.77560332  0.20948449    -0.10900
C1418       C  0.90778690  0.81858212  0.21930811    -0.12500
C1419       C  0.90793087  0.59017385  0.22038053    -0.10900
C1420       C  0.88573611  0.61111935  0.21054828    -0.12500
C1421       C  0.72149374  0.61267824  0.20969002    -0.10900
C1422       C  0.67873059  0.59173246  0.21967193    -0.12500
C1423       C  0.57628174  0.91535049  0.33079399    -0.14100
C1424       C  0.58124407  0.91052965  0.31054801    -0.29200
H1425       H  0.55494036  0.93685379  0.33674171     0.15000
H1426       H  0.60250645  0.88894820  0.30459932     0.15500
C1427       C  0.58041036  0.66165439  0.33156864    -0.14100
C1428       C  0.58444898  0.67106020  0.31130166    -0.29200
H1429       H  0.55938496  0.61888716  0.33763948     0.15000
H1430       H  0.60539571  0.71385111  0.30525516     0.15500
C1431       C  0.82638879  0.91442980  0.31023685    -0.14100
C1432       C  0.83620224  0.92024096  0.33046966    -0.29200
H1433       H  0.78343924  0.89249812  0.30427318     0.15000
H1434       H  0.87915780  0.94217117  0.33642897     0.15500
C1435       C  0.75437187  0.51429370  0.42093494    -0.10900
C1436       C  0.77538301  0.55692727  0.43094718    -0.12500
C1437       C  0.94156056  0.72062911  0.43192502    -0.10900
C1438       C  0.98475745  0.74208370  0.42214414    -0.12500
C1439       C  0.75986232  0.74680618  0.42132075    -0.10900
C1440       C  0.78020554  0.72404795  0.43106585    -0.12500
loop_ 
_geom_bond_atom_site_label_1 
_geom_bond_atom_site_label_2 
_geom_bond_distance 
_geom_bond_site_symmetry_2 
_ccdc_geom_bond_type 
Zn1           O5   1.959       .  S
Zn1           O6   2.040       .  S
Zn1          O10   2.020       .  S
Zn1          O17   2.024       .  S
Zn2           O5   1.918       .  S
Zn2           O7   1.924       .  S
Zn2           O9   1.928       .  S
Zn2          O13   1.916       .  S
Zn3           O5   1.957       .  S
Zn3           O8   2.008       .  S
Zn3          O11   2.029       .  S
Zn3          O14   2.018       .  S
Zn4           O5   1.960       .  S
Zn4          O12   2.026       .  S
Zn4          O15   2.040       .  S
Zn4          O16   2.019       .  S
O6           C18   1.274       .  A
O7           C19   1.260       .  A
O8           C20   1.272       .  A
O9           C18   1.261       .  A
O10          C20   1.274       .  A
O11          C19   1.272       .  A
O12          C21   1.274       .  A
O13          C22   1.260       .  A
O14          C21   1.273       .  A
O15          C22   1.274       .  A
O16          C23   1.274       .  A
O17          C23   1.274       .  A
C18         C347   1.464       .  S
C19         C343   1.461       .  S
C20        C1078   1.431   1_455  S
C21         C715   1.436       .  S
C22         C352   1.462       .  S
C23         C359   1.434       .  S
Zn24         O28   1.963       .  S
Zn24         O40   2.033       .  S
Zn24        O389   2.019       .  S
Zn24        O753   2.016   1_455  S
Zn25        O388   1.959   1_445  S
Zn25         O32   2.017       .  S
Zn25         O36   2.037       .  S
Zn25        O750   2.014   1_455  S
Zn26        O748   1.962       .  S
Zn26         O31   2.030       .  S
Zn26         O37   2.041       .  S
Zn26        O394   2.028       .  S
Zn27         O28   1.923       .  S
Zn27         O39   1.925       .  S
Zn27        O755   1.933   1_455  S
Zn27        O398   1.933       .  S
O28        Zn385   1.960       .  S
O28        Zn746   1.959   1_455  S
O29        Zn384   2.017   1_545  S
O29          C41   1.273       .  A
O30        Zn745   2.018       .  S
O30          C42   1.273       .  A
O31          C43   1.275       .  A
O32          C41   1.273       .  A
O33        Zn744   2.018       .  S
O33          C43   1.273       .  A
O34        Zn386   2.022   1_545  S
O34          C42   1.274       .  A
O35        Zn747   1.919       .  S
O35          C44   1.260       .  A
O36          C45   1.273       .  A
O37          C44   1.274       .  A
O38        Zn387   1.927   1_455  S
O38          C45   1.261       .  A
O39          C46   1.261       .  A
O40          C46   1.273       .  A
C41         C342   1.433       .  S
C42         C339   1.435       .  S
C43         C338   1.437       .  S
C44         C351   1.462       .  S
C45         C348   1.464       .  S
C46         C344   1.462       .  S
C47          H48   1.111       .  S
C47          C53   1.555       .  S
C47          C52   1.554       .  S
C47          C51   1.550       .  S
C49          H50   1.112       .  S
C49          C55   1.529       .  S
C49          C54   1.530       .  S
C49          C56   1.529       .  S
C51         C308   1.491       .  S
C51          C54   1.369       .  D
C52         C318   1.497       .  S
C52          C55   1.373       .  D
C53         C328   1.497       .  S
C53          C56   1.374       .  D
C54         C304   1.444       .  S
C55         C301   1.447       .  S
C56         C306   1.446       .  S
C57          H58   1.111       .  S
C57          C62   1.551       .  S
C57         C783   1.552       .  S
C57        C1141   1.553       .  S
C59          H60   1.112       .  S
C59          C65   1.536       .  S
C59        C1144   1.534       .  S
C59         C786   1.535       .  S
C61         C331   1.497       .  S
C61        C1137   1.554       .  S
C61          C64   1.373       .  D
C62         C321   1.498       .  S
C62          C65   1.373       .  D
C63         C311   1.491       .  S
C63         C777   1.550   1_455  S
C63          C66   1.370       .  D
C64        C1139   1.531   1_455  S
C64         C300   1.446       .  S
C65         C296   1.452       .  S
C66         C779   1.534   1_455  S
C66         C297   1.449       .  S
C67          H68   1.112       .  S
C67          C73   1.531       .  S
C67          C72   1.532       .  S
C67          C71   1.530       .  S
C69          H70   1.111       .  S
C69          C75   1.550       .  S
C69          C74   1.552       .  S
C69          C76   1.548       .  S
C71          C74   1.372       .  D
C71         C259   1.444       .  S
C72          C75   1.370       .  D
C72         C263   1.448       .  S
C73          C76   1.371       .  D
C73         C262   1.446       .  S
C74         C266   1.492       .  S
C75         C286   1.490       .  S
C76         C276   1.490       .  S
C77          H78   1.112       .  S
C77          C83   1.530       .  S
C77          C82   1.526       .  S
C77          C81   1.528       .  S
C79          H80   1.111       .  S
C79          C85   1.554       .  S
C79          C84   1.550       .  S
C79          C86   1.549       .  S
C81          C84   1.369       .  D
C81         C360   1.445       .  S
C82          C85   1.371       .  D
C82         C356   1.443       .  S
C83          C86   1.374       .  D
C83         C357   1.444       .  S
C84         C289   1.490       .  S
C85         C269   1.492       .  S
C86         C279   1.495       .  S
Zn87         O91   1.956       .  S
Zn87         O92   2.016       .  S
Zn87         O96   2.038       .  S
Zn87        O103   2.026       .  S
Zn88         O91   1.959       .  S
Zn88         O93   2.028       .  S
Zn88         O95   2.013       .  S
Zn88         O99   2.014       .  S
Zn89         O91   1.920       .  S
Zn89         O94   1.934       .  S
Zn89         O97   1.931       .  S
Zn89        O100   1.921       .  S
Zn90         O91   1.961       .  S
Zn90         O98   2.039       .  S
Zn90        O101   2.016       .  S
Zn90        O102   2.025       .  S
O92         C104   1.273       .  A
O93         C105   1.272       .  A
O94         C106   1.262       .  A
O95         C104   1.272       .  A
O96         C106   1.274       .  A
O97         C105   1.261       .  A
O98         C107   1.273       .  A
O99         C108   1.273       .  A
O100        C107   1.261       .  A
O101        C108   1.273       .  A
O102        C109   1.274       .  A
O103        C109   1.274       .  A
C104        C981   1.431       .  S
C105        C247   1.460       .  S
C106        C251   1.465       .  S
C107        C255   1.464       .  S
C108        C620   1.431   1_545  S
C109        C264   1.438       .  S
Zn110       O834   1.960   1_545  S
Zn110       O119   2.035       .  S
Zn110       O475   2.016   1_545  S
Zn110       O846   2.014       .  S
Zn111      O1194   1.961       .  S
Zn111       O116   2.042       .  S
Zn111       O118   2.024       .  S
Zn111       O842   2.024       .  S
Zn112       O114   1.919   1_665  S
Zn112       O123   1.930   1_665  S
Zn112       O837   1.925   1_565  S
Zn112      O1200   1.920       .  S
Zn113       O114   1.957       .  S
Zn113       O121   2.030       .  S
Zn113       O125   2.022       .  S
Zn113       O484   2.016   1_545  S
O114       Zn830   1.959   1_455  S
O114      Zn1191   1.962   1_445  S
O115       Zn470   2.023       .  S
O115        C127   1.274       .  A
O116        C128   1.274       .  A
O117       Zn832   1.919       .  S
O117        C129   1.261       .  A
O118        C127   1.274       .  A
O119        C129   1.273       .  A
O120      Zn1192   1.934       .  S
O120        C128   1.262       .  A
O121        C130   1.273       .  A
O122       Zn831   2.017   1_455  S
O122        C131   1.273       .  A
O123        C130   1.261       .  A
O124       Zn473   2.017       .  S
O124        C131   1.273       .  A
O125        C132   1.274       .  A
O126       Zn830   2.020   1_455  S
O126        C132   1.273       .  A
C127        C302   1.436       .  S
C128        C252   1.466       .  S
C129        C248   1.463       .  S
C130        C256   1.461       .  S
C131        C303   1.433       .  S
C132        C305   1.435       .  S
C133        H134   1.111       .  S
C133        C139   1.552       .  S
C133        C138   1.553       .  S
C133        C137   1.553       .  S
C135        H136   1.112       .  S
C135        C141   1.531       .  S
C135        C140   1.530       .  S
C135        C142   1.530       .  S
C137        C238   1.496       .  S
C137        C140   1.372       .  D
C138        C221   1.501       .  S
C138        C141   1.374       .  D
C139        C228   1.492       .  S
C139        C142   1.370       .  D
C140        C341   1.444       .  S
C141        C340   1.446       .  S
C142        C337   1.447       .  S
C143        H144   1.111       .  S
C143        C148   1.551       .  S
C143        C869   1.552       .  S
C143        C507   1.550   1_545  S
C145        H146   1.112   1_545  S
C145        C151   1.534       .  S
C145        C510   1.534   1_545  S
C145        C872   1.533       .  S
C147        C231   1.493       .  S
C147        C503   1.552       .  S
C147        C150   1.371       .  D
C148        C218   1.501       .  S
C148        C151   1.374       .  D
C149        C241   1.495       .  S
C149        C863   1.554   1_445  S
C149        C152   1.373       .  D
C150        C505   1.533       .  S
C150        C212   1.449       .  S
C151        C214   1.446       .  S
C152        C865   1.532   1_445  S
C152        C216   1.449       .  S
Zn153       O157   1.952       .  S
Zn153       O158   2.004       .  S
Zn153       O162   1.993       .  S
Zn153       O169   1.988       .  S
Zn154       O157   1.957       .  S
Zn154       O159   2.044       .  S
Zn154       O161   2.038       .  S
Zn154       O165   2.049       .  S
Zn155       O157   1.957       .  S
Zn155       O160   1.992       .  S
Zn155       O163   2.011       .  S
Zn155       O166   2.000       .  S
Zn156       O157   1.956       .  S
Zn156       O164   1.987       .  S
Zn156       O167   2.014       .  S
Zn156       O168   2.012       .  S
O158        C170   1.271       .  A
O159        C171   1.276       .  A
O160        C172   1.267       .  A
O161        C170   1.276       .  A
O162        C172   1.270       .  A
O163        C171   1.272       .  A
O164        C173   1.268       .  A
O165        C174   1.277       .  A
O166        C173   1.272       .  A
O167        C174   1.272       .  A
O168        C175   1.272       .  A
O169        C175   1.267       .  A
C170        C299   1.435       .  S
C171        C298   1.438       .  S
C172        C207   1.464       .  S
C173        C203   1.464       .  S
C174        C295   1.441       .  S
C175        C200   1.468       .  S
Zn176       O180   1.954       .  S
Zn176       O181   1.995       .  S
Zn176       O185   2.001       .  S
Zn176       O192   2.011       .  S
Zn177       O180   1.954       .  S
Zn177       O182   1.991       .  S
Zn177       O184   2.006       .  S
Zn177       O188   2.012       .  S
Zn178       O180   1.954       .  S
Zn178       O183   1.986       .  S
Zn178       O186   1.991       .  S
Zn178       O189   2.001       .  S
Zn179       O180   1.954       .  S
Zn179       O187   2.040       .  S
Zn179       O190   2.039       .  S
Zn179       O191   2.040       .  S
O181        C193   1.268       .  A
O182        C194   1.267       .  A
O183        C195   1.267       .  A
O184        C193   1.273       .  A
O185        C195   1.272       .  A
O186        C194   1.271       .  A
O187        C196   1.276       .  A
O188        C197   1.272       .  A
O189        C196   1.270       .  A
O190        C197   1.276       .  A
O191        C198   1.276       .  A
O192        C198   1.272       .  A
C193        C199   1.469   1_554  S
C194        C204   1.463   1_554  S
C195        C208   1.465   1_554  S
C196        C213   1.435       .  S
C197        C215   1.438       .  S
C198        C211   1.438       .  S
C199        C200   1.342       .  D
C199        H201   1.087       .  S
C200        H202   1.087       .  S
C203        C564   1.341       .  D
C203        H205   1.087       .  S
C204        C563   1.341   1_545  D
C204        H206   1.087   1_545  S
C207        C928   1.342   1_455  D
C207        H209   1.087   1_455  S
C208        C927   1.341       .  D
C208        H210   1.087       .  S
C211        C212   1.208       .  T
C213        C214   1.206       .  T
C215        C216   1.208       .  T
C217        C218   1.402       .  A
C217        C222   1.403       .  A
C217        H583   1.081   1_545  S
C218        C219   1.410       .  A
C219        C220   1.402       .  A
C219        H944   1.082       .  S
C220        C221   1.401       .  A
C220        H225   1.080       .  S
C221        C222   1.411       .  A
C222        H226   1.082       .  S
H223        C577   1.079       .  S
H224        C939   1.083       .  S
C227        C228   1.406       .  A
C227        C232   1.402       .  A
C227        H233   1.083       .  S
C228        C229   1.402       .  A
C229        C230   1.403       .  A
C229        H234   1.080       .  S
C230        C231   1.407       .  A
C230        H955   1.083       .  S
C231        C232   1.402       .  A
C232        H236   1.079       .  S
H235        C950   1.083   1_455  S
C237        C238   1.401       .  A
C237        C242   1.403       .  A
C237        H243   1.083       .  S
C238        C239   1.410       .  A
C239        C240   1.403       .  A
C239        H244   1.083       .  S
C240        C241   1.401       .  A
C240        H245   1.083       .  S
C241        C242   1.410       .  A
C242        H606   1.083       .  S
H246        C602   1.083       .  S
C247        C248   1.351       .  D
C247        H249   1.087       .  S
C248        H250   1.087       .  S
C251        C252   1.352       .  D
C251        H253   1.087       .  S
C252        H254   1.087       .  S
C255        C256   1.351       .  D
C255        H257   1.087       .  S
C256        H258   1.087       .  S
C259        C260   1.205       .  T
C260        C468   1.433       .  S
C261        C824   1.436   1_455  S
C261        C262   1.206       .  T
C263        C264   1.207       .  T
C265        C266   1.410       .  A
C265        C630   1.402       .  A
C265        H271   1.083       .  S
C266        C267   1.400       .  A
C267        C628   1.401       .  A
C267        H272   1.083       .  S
C268        C269   1.410       .  A
C268        C627   1.402   1_545  A
C268        H273   1.083       .  S
C269        C270   1.400       .  A
C270        C625   1.401   1_545  A
C270        H274   1.083       .  S
C275        C276   1.400       .  A
C275       C1000   1.400   1_455  A
C275        H281   1.077       .  S
C276        C277   1.406       .  A
C277        C998   1.400   1_455  A
C277        H282   1.083       .  S
C278        C279   1.402       .  A
C278        C997   1.402       .  A
C278        H283   1.079       .  S
C279        C280   1.407       .  A
C280        C995   1.398       .  A
C280        H284   1.082       .  S
C285        C286   1.402       .  A
C285        C290   1.401       .  A
C285        H291   1.077       .  S
C286        C287   1.405       .  A
C287        C288   1.402       .  A
C287        H292   1.083       .  S
C288        C289   1.402       .  A
C288        H293   1.079       .  S
C289        C290   1.405       .  A
C290        H294   1.083       .  S
C295        C296   1.209       .  T
C297        C298   1.208       .  T
C299        C300   1.206       .  T
C301        C302   1.207       .  T
C303        C304   1.204       .  T
C305        C306   1.206       .  T
C307        C308   1.402       .  A
C307        C312   1.402       .  A
C307        H313   1.080       .  S
C308        C309   1.407       .  A
C309        C310   1.403       .  A
C309        H314   1.083       .  S
C310        C311   1.403       .  A
C310        H315   1.080   1_455  S
C311        C312   1.406       .  A
C312        H316   1.083       .  S
C317        C318   1.409       .  A
C317        C322   1.402       .  A
C317        H323   1.083       .  S
C318        C319   1.402       .  A
C319        C320   1.402       .  A
C319        H324   1.080       .  S
C320        C321   1.409       .  A
C320        H685   1.083       .  S
C321        C322   1.402       .  A
C322        H326   1.079       .  S
H325        C680   1.083   1_545  S
C327        C328   1.401       .  A
C327        C332   1.403       .  A
C327        H333   1.083       .  S
C328        C329   1.411       .  A
C329        C330   1.403       .  A
C329        H334   1.083       .  S
C330        C331   1.401       .  A
C330        H335   1.083   1_455  S
C331        C332   1.411       .  A
C332        H336   1.083       .  S
C337        C338   1.207       .  T
C339        C340   1.206       .  T
C341        C342   1.205       .  T
C343        C344   1.351       .  D
C343        H345   1.087       .  S
C344        H346   1.087       .  S
C347        C348   1.352       .  D
C347        H349   1.087       .  S
C348        H350   1.087       .  S
C351        C352   1.353       .  D
C351        H353   1.087       .  S
C352        H354   1.087       .  S
C355        C381   1.432   1_545  S
C355        C356   1.204       .  T
C357        C358   1.205       .  T
C358        C740   1.433       .  S
C359        C360   1.205       .  T
Zn361       O365   1.960       .  S
Zn361       O366   2.042       .  S
Zn361       O370   2.028       .  S
Zn361       O377   2.027       .  S
Zn362       O365   1.923       .  S
Zn362       O367   1.930       .  S
Zn362       O369   1.932       .  S
Zn362       O373   1.931       .  S
Zn363       O365   1.962       .  S
Zn363       O368   2.018       .  S
Zn363       O371   2.033       .  S
Zn363       O374   2.018       .  S
Zn364       O365   1.960       .  S
Zn364       O372   2.016       .  S
Zn364       O375   2.035       .  S
Zn364       O376   2.022       .  S
O366        C378   1.274       .  A
O367        C379   1.262       .  A
O368        C380   1.273       .  A
O369        C378   1.262       .  A
O370        C380   1.275       .  A
O371        C379   1.273       .  A
O372        C381   1.273       .  A
O373        C382   1.261       .  A
O374        C381   1.273       .  A
O375        C382   1.273       .  A
O376        C383   1.274       .  A
O377        C383   1.274       .  A
C378        C707   1.466       .  S
C379        C703   1.463       .  S
C380       C1438   1.435   1_455  S
C382        C712   1.464       .  S
C383        C719   1.437       .  S
Zn384       O388   1.957   1_455  S
Zn384      O1113   2.014   1_455  S
Zn384       O400   2.031       .  S
Zn385      O1110   2.026   1_455  S
Zn385       O392   2.024       .  S
Zn385       O396   2.043       .  S
Zn386      O1108   1.960       .  S
Zn386       O391   2.024       .  S
Zn386       O397   2.039       .  S
Zn387       O388   1.919   1_545  S
Zn387      O1115   1.927   1_545  S
Zn387       O399   1.931   1_645  S
O388      Zn1106   1.961       .  S
O389        C401   1.273       .  A
O390      Zn1105   2.018       .  S
O390        C402   1.273       .  A
O391        C403   1.274       .  A
O392        C401   1.274       .  A
O393      Zn1104   2.019       .  S
O393        C403   1.273       .  A
O394        C402   1.275       .  A
O395      Zn1107   1.929       .  S
O395        C404   1.261       .  A
O396        C405   1.274       .  A
O397        C404   1.274       .  A
O398        C405   1.262       .  A
O399        C406   1.261       .  A
O400        C406   1.272       .  A
C401        C702   1.435       .  S
C402        C699   1.436       .  S
C403        C698   1.435       .  S
C404        C711   1.464       .  S
C405        C708   1.466       .  S
C406        C704   1.462       .  S
C407        H408   1.111       .  S
C407        C413   1.553       .  S
C407        C412   1.549       .  S
C407        C411   1.551       .  S
C409        H410   1.112       .  S
C409        C415   1.530       .  S
C409        C414   1.530       .  S
C409        C416   1.529       .  S
C411        C668   1.497       .  S
C411        C414   1.374       .  D
C412        C678   1.490       .  S
C412        C415   1.369       .  D
C413        C688   1.491       .  S
C413        C416   1.373       .  D
C414        C664   1.444       .  S
C415        C661   1.446       .  S
C416        C666   1.447       .  S
C417        H418   1.111       .  S
C417       C1143   1.552       .  S
C417        C422   1.550       .  S
C417        C781   1.553   1_565  S
C419        H420   1.112       .  S
C419        C425   1.532   1_545  S
C419        C784   1.532       .  S
C419       C1146   1.533   1_545  S
C421        C691   1.492       .  S
C421        C777   1.552   1_455  S
C421        C424   1.372       .  D
C422        C681   1.489       .  S
C422        C425   1.368       .  D
C423        C671   1.500       .  S
C423       C1137   1.553   1_565  S
C423        C426   1.374       .  D
C424        C779   1.533   1_455  S
C424        C660   1.450       .  S
C425        C656   1.448       .  S
C426       C1139   1.532   1_465  S
C426        C657   1.447       .  S
C427        H428   1.112       .  S
C427        C433   1.527       .  S
C427        C432   1.527       .  S
C427        C431   1.527       .  S
C429        H430   1.111       .  S
C429        C435   1.551       .  S
C429        C434   1.552       .  S
C429        C436   1.551       .  S
C431        C434   1.372       .  D
C431        C619   1.442       .  S
C432        C435   1.372       .  D
C432        C623   1.444       .  S
C433        C436   1.370       .  D
C433        C622   1.443       .  S
C434        C626   1.492       .  S
C435        C646   1.493       .  S
C436        C636   1.490       .  S
C437        H438   1.112       .  S
C437        C443   1.530       .  S
C437        C442   1.530       .  S
C437        C441   1.530       .  S
C439        H440   1.111       .  S
C439        C445   1.552       .  S
C439        C444   1.550       .  S
C439        C446   1.549       .  S
C441        C444   1.373       .  D
C441        C720   1.448       .  S
C442        C445   1.373       .  D
C442        C716   1.447       .  S
C443        C446   1.369       .  D
C443        C717   1.442       .  S
C444        C649   1.492       .  S
C445        C629   1.491       .  S
C446        C639   1.490       .  S
Zn447       O451   1.961       .  S
Zn447       O452   2.025       .  S
Zn447       O456   2.042       .  S
Zn447       O463   2.017       .  S
Zn448       O451   1.958       .  S
Zn448       O453   2.033       .  S
Zn448       O455   2.011       .  S
Zn448       O459   2.013       .  S
Zn449       O451   1.919       .  S
Zn449       O454   1.924       .  S
Zn449       O457   1.929       .  S
Zn449       O460   1.932       .  S
Zn450       O451   1.958       .  S
Zn450       O458   2.034       .  S
Zn450       O461   2.020       .  S
Zn450       O462   2.020       .  S
O452        C464   1.274       .  A
O453        C465   1.273       .  A
O454        C466   1.261       .  A
O455        C464   1.272       .  A
O456        C466   1.274       .  A
O457        C465   1.262       .  A
O458        C467   1.273       .  A
O459        C468   1.272       .  A
O460        C467   1.261       .  A
O461        C468   1.274       .  A
O462        C469   1.274       .  A
O463        C469   1.273       .  A
C464       C1341   1.432       .  S
C465        C607   1.464       .  S
C466        C611   1.465       .  S
C467        C615   1.463       .  S
C469        C624   1.433       .  S
Zn470      O1194   1.961       .  S
Zn470       O479   2.034       .  S
Zn470      O1206   2.026       .  S
Zn471       O834   1.959       .  S
Zn471       O476   2.042       .  S
Zn471       O478   2.026       .  S
Zn471      O1202   2.024       .  S
Zn472       O474   1.923   1_455  S
Zn472      O1197   1.930   1_455  S
Zn472       O840   1.933   1_455  S
Zn472       O483   1.929       .  S
Zn473       O474   1.962   1_455  S
Zn473       O481   2.039       .  S
Zn473       O485   2.022       .  S
O474      Zn1190   1.960       .  S
O474       Zn831   1.960       .  S
O475        C487   1.273       .  A
O476        C488   1.274       .  A
O477      Zn1192   1.935       .  S
O477        C489   1.262       .  A
O478        C487   1.274       .  A
O479        C489   1.273       .  A
O480       Zn832   1.927   1_565  S
O480        C488   1.261       .  A
O481        C490   1.273       .  A
O482      Zn1191   2.021   1_455  S
O482        C491   1.274       .  A
O483        C490   1.261       .  A
O484        C491   1.273       .  A
O485        C492   1.274       .  A
O486      Zn1190   2.026   1_455  S
O486        C492   1.274       .  A
C487        C662   1.435       .  S
C488        C612   1.464       .  S
C489        C608   1.463       .  S
C490        C616   1.465       .  S
C491        C663   1.433       .  S
C492        C665   1.437       .  S
C493        H494   1.111       .  S
C493        C499   1.549       .  S
C493        C498   1.552       .  S
C493        C497   1.552       .  S
C495        H496   1.112       .  S
C495        C501   1.530       .  S
C495        C500   1.528       .  S
C495        C502   1.530       .  S
C497        C598   1.492       .  S
C497        C500   1.373       .  D
C498        C581   1.497       .  S
C498        C501   1.374       .  D
C499        C588   1.488       .  S
C499        C502   1.369       .  D
C500        C701   1.445       .  S
C501        C700   1.446       .  S
C502        C697   1.445       .  S
C503        H504   1.111       .  S
C503       C1229   1.553       .  S
C503        C508   1.553       .  S
C505        H506   1.112       .  S
C505        C511   1.533       .  S
C505       C1232   1.532       .  S
C507        C591   1.488       .  S
C507        C510   1.370       .  D
C508        C578   1.497       .  S
C508        C511   1.373       .  D
C509        C601   1.492       .  S
C509       C1223   1.552   1_455  S
C509        C512   1.372       .  D
C510        C572   1.452       .  S
C511        C574   1.451       .  S
C512       C1225   1.532   1_455  S
C512        C576   1.449       .  S
Zn513       O517   1.954       .  S
Zn513       O518   2.009       .  S
Zn513       O522   2.002       .  S
Zn513       O529   1.988       .  S
Zn514       O517   1.957       .  S
Zn514       O519   2.044       .  S
Zn514       O521   2.046       .  S
Zn514       O525   2.045       .  S
Zn515       O517   1.954       .  S
Zn515       O520   1.987       .  S
Zn515       O523   2.004       .  S
Zn515       O526   1.997       .  S
Zn516       O517   1.955       .  S
Zn516       O524   1.987       .  S
Zn516       O527   2.006       .  S
Zn516       O528   2.000       .  S
O518        C530   1.272       .  A
O519        C531   1.277       .  A
O520        C532   1.267       .  A
O521        C530   1.277       .  A
O522        C532   1.272       .  A
O523        C531   1.271       .  A
O524        C533   1.267       .  A
O525        C534   1.277       .  A
O526        C533   1.271       .  A
O527        C534   1.272       .  A
O528        C535   1.271       .  A
O529        C535   1.267       .  A
C530        C659   1.439       .  S
C531        C658   1.436       .  S
C532        C567   1.465       .  S
C533        C563   1.463       .  S
C534        C655   1.438       .  S
C535        C560   1.465       .  S
Zn536       O540   1.956       .  S
Zn536       O541   1.991       .  S
Zn536       O545   1.998       .  S
Zn536       O552   2.011       .  S
Zn537       O540   1.956       .  S
Zn537       O542   1.991       .  S
Zn537       O544   1.999       .  S
Zn537       O548   2.005       .  S
Zn538       O540   1.956       .  S
Zn538       O543   1.987       .  S
Zn538       O546   2.000       .  S
Zn538       O549   2.009       .  S
Zn539       O540   1.956       .  S
Zn539       O547   2.050       .  S
Zn539       O550   2.048       .  S
Zn539       O551   2.052       .  S
O541        C553   1.267       .  A
O542        C554   1.267       .  A
O543        C555   1.267       .  A
O544        C553   1.272       .  A
O545        C555   1.272       .  A
O546        C554   1.272       .  A
O547        C556   1.277       .  A
O548        C557   1.271       .  A
O549        C556   1.272       .  A
O550        C557   1.277       .  A
O551        C558   1.277       .  A
O552        C558   1.272       .  A
C553        C559   1.466   1_554  S
C554        C564   1.465   1_554  S
C555        C568   1.463   1_554  S
C556        C573   1.440       .  S
C557        C575   1.438       .  S
C558        C571   1.441       .  S
C559        C560   1.341       .  D
C559        H561   1.087       .  S
C560        H562   1.087       .  S
C563        H565   1.087   1_565  S
C564        H566   1.087       .  S
C567       C1288   1.342   1_455  D
C567        H569   1.087   1_455  S
C568       C1287   1.341       .  D
C568        H570   1.087       .  S
C571        C572   1.209       .  T
C573        C574   1.209       .  T
C575        C576   1.208       .  T
C577        C578   1.401       .  A
C577        C582   1.401       .  A
C578        C579   1.410       .  A
C579        C580   1.403       .  A
C579       H1304   1.083       .  S
C580        C581   1.402       .  A
C580        H585   1.081       .  S
C581        C582   1.409       .  A
C582        H586   1.083       .  S
H584       C1299   1.083       .  S
C587        C588   1.406       .  A
C587        C592   1.402       .  A
C587        H593   1.083       .  S
C588        C589   1.401       .  A
C589        C590   1.401       .  A
C589        H594   1.081       .  S
C590        C591   1.406       .  A
C590       H1315   1.083       .  S
C591        C592   1.402       .  A
C592        H596   1.081       .  S
H595       C1310   1.083   1_455  S
C597        C598   1.401       .  A
C597        C602   1.402       .  A
C597        H603   1.083       .  S
C598        C599   1.409       .  A
C599        C600   1.401       .  A
C599        H604   1.083       .  S
C600        C601   1.400       .  A
C600        H605   1.083       .  S
C601        C602   1.410       .  A
C607        C608   1.351       .  D
C607        H609   1.087       .  S
C608        H610   1.087       .  S
C611        C612   1.353       .  D
C611        H613   1.087       .  S
C612        H614   1.087       .  S
C615        C616   1.352       .  D
C615        H617   1.087       .  S
C616        H618   1.087       .  S
C619        C620   1.203       .  T
C621       C1184   1.432   1_455  S
C621        C622   1.204       .  T
C623        C624   1.205       .  T
C625        C626   1.409       .  A
C625        H631   1.083       .  S
C626        C627   1.401       .  A
C627        H632   1.083       .  S
C628        C629   1.409       .  A
C628        H633   1.083       .  S
C629        C630   1.401       .  A
C630        H634   1.083       .  S
C635        C636   1.401       .  A
C635       C1360   1.401   1_455  A
C635        H641   1.078       .  S
C636        C637   1.406       .  A
C637       C1358   1.400   1_455  A
C637        H642   1.083       .  S
C638       C1357   1.401       .  A
C638        C639   1.401       .  A
C638        H643   1.079       .  S
C639        C640   1.407       .  A
C640       C1355   1.402       .  A
C640        H644   1.083       .  S
C645        C646   1.400       .  A
C645        C650   1.399       .  A
C645        H651   1.078       .  S
C646        C647   1.409       .  A
C647        C648   1.401       .  A
C647        H652   1.083       .  S
C648        C649   1.401       .  A
C648        H653   1.079       .  S
C649        C650   1.407       .  A
C650        H654   1.083       .  S
C655        C656   1.207       .  T
C657        C658   1.207       .  T
C659        C660   1.208       .  T
C661        C662   1.206       .  T
C663        C664   1.205       .  T
C665        C666   1.207       .  T
C667        C668   1.401       .  A
C667        C672   1.402       .  A
C667        H673   1.079       .  S
C668        C669   1.408       .  A
C669        C670   1.401       .  A
C669        H674   1.083       .  S
C670        C671   1.401       .  A
C670        H675   1.077   1_455  S
C671        C672   1.410       .  A
C672        H676   1.082       .  S
C677        C678   1.406       .  A
C677        C682   1.403       .  A
C677        H683   1.083       .  S
C678        C679   1.402       .  A
C679        C680   1.401       .  A
C679        H684   1.079       .  S
C680        C681   1.405       .  A
C681        C682   1.402       .  A
C682        H686   1.080       .  S
C687        C688   1.401       .  A
C687        C692   1.401       .  A
C687        H693   1.083       .  S
C688        C689   1.409       .  A
C689        C690   1.402       .  A
C689        H694   1.083       .  S
C690        C691   1.401       .  A
C690        H695   1.083   1_455  S
C691        C692   1.409       .  A
C692        H696   1.083       .  S
C697        C698   1.206       .  T
C699        C700   1.206       .  T
C701        C702   1.205       .  T
C703        C704   1.351       .  D
C703        H705   1.087       .  S
C704        H706   1.087       .  S
C707        C708   1.353       .  D
C707        H709   1.087       .  S
C708        H710   1.087       .  S
C711        C712   1.352       .  D
C711        H713   1.087       .  S
C712        H714   1.087       .  S
C715        C716   1.206       .  T
C717        C718   1.203       .  T
C718       C1100   1.431       .  S
C719        C720   1.207       .  T
Zn721       O725   1.960       .  S
Zn721       O726   2.034       .  S
Zn721       O730   2.024       .  S
Zn721       O737   2.019       .  S
Zn722       O725   1.921       .  S
Zn722       O727   1.937       .  S
Zn722       O729   1.931       .  S
Zn722       O733   1.934       .  S
Zn723       O725   1.956       .  S
Zn723       O728   2.009       .  S
Zn723       O731   2.028       .  S
Zn723       O734   2.010       .  S
Zn724       O725   1.959       .  S
Zn724       O732   2.020       .  S
Zn724       O735   2.035       .  S
Zn724       O736   2.015       .  S
O726        C738   1.273       .  A
O727        C739   1.262       .  A
O728        C740   1.272       .  A
O729        C738   1.262       .  A
O730        C740   1.274       .  A
O731        C739   1.272       .  A
O732        C741   1.273       .  A
O733        C742   1.262       .  A
O734        C741   1.272       .  A
O735        C742   1.273       .  A
O736        C743   1.273       .  A
O737        C743   1.273       .  A
C738       C1067   1.463       .  S
C739       C1063   1.463       .  S
C741       C1435   1.432       .  S
C742       C1072   1.465       .  S
C743       C1079   1.432       .  S
Zn744       O748   1.958       .  S
Zn744      O1109   2.012       .  S
Zn744       O760   2.033       .  S
Zn745      O1108   1.960   1_545  S
Zn745       O752   2.018       .  S
Zn745       O756   2.031       .  S
Zn746       O751   2.024       .  S
Zn746      O1114   2.026       .  S
Zn746       O757   2.035       .  S
Zn747       O748   1.922       .  S
Zn747      O1118   1.931       .  S
Zn747       O759   1.930       .  S
O748      Zn1105   1.958       .  S
O749      Zn1104   2.023   1_545  S
O749        C761   1.274       .  A
O750        C762   1.273       .  A
O751        C763   1.274       .  A
O752        C761   1.273       .  A
O753        C763   1.273       .  A
O754      Zn1106   2.021   1_545  S
O754        C762   1.274       .  A
O755        C764   1.262       .  A
O756        C765   1.273       .  A
O757        C764   1.273       .  A
O758      Zn1107   1.930   1_545  S
O758        C765   1.261       .  A
O759        C766   1.261       .  A
O760        C766   1.272       .  A
C761       C1062   1.434       .  S
C762       C1059   1.432       .  S
C763       C1058   1.434       .  S
C764       C1071   1.464       .  S
C765       C1068   1.463       .  S
C766       C1064   1.463       .  S
C767        H768   1.111       .  S
C767        C773   1.554       .  S
C767        C772   1.554       .  S
C767        C771   1.550       .  S
C769        H770   1.112       .  S
C769        C775   1.530       .  S
C769        C774   1.531       .  S
C769        C776   1.530       .  S
C771       C1028   1.493       .  S
C771        C774   1.370       .  D
C772       C1038   1.496       .  S
C772        C775   1.374       .  D
C773       C1048   1.496       .  S
C773        C776   1.372       .  D
C774       C1024   1.446       .  S
C775       C1021   1.449       .  S
C776       C1026   1.444       .  S
C777        H778   1.111       .  S
C777        C782   1.551       .  S
C779        H780   1.112       .  S
C779        C785   1.534       .  S
C781       C1051   1.495       .  S
C781        C784   1.373       .  D
C782       C1041   1.496       .  S
C782        C785   1.373       .  D
C783       C1031   1.493       .  S
C783        C786   1.371       .  D
C784       C1020   1.448       .  S
C785       C1016   1.449       .  S
C786       C1017   1.450       .  S
C787        H788   1.112       .  S
C787        C793   1.527       .  S
C787        C792   1.528       .  S
C787        C791   1.529       .  S
C789        H790   1.111       .  S
C789        C795   1.554       .  S
C789        C794   1.553       .  S
C789        C796   1.552       .  S
C791        C794   1.372       .  D
C791        C979   1.445       .  S
C792        C795   1.372       .  D
C792        C983   1.445       .  S
C793        C796   1.372       .  D
C793        C982   1.442       .  S
C794        C986   1.493       .  S
C795       C1006   1.498       .  S
C796        C996   1.496       .  S
C797        H798   1.112       .  S
C797        C803   1.528       .  S
C797        C802   1.527       .  S
C797        C801   1.529       .  S
C799        H800   1.111       .  S
C799        C805   1.555       .  S
C799        C804   1.551       .  S
C799        C806   1.550       .  S
C801        C804   1.372       .  D
C801       C1080   1.443       .  S
C802        C805   1.373       .  D
C802       C1076   1.447       .  S
C803        C806   1.370       .  D
C803       C1077   1.442       .  S
C804       C1009   1.496       .  S
C805        C989   1.492       .  S
C806        C999   1.491       .  S
Zn807       O811   1.959       .  S
Zn807       O812   2.022       .  S
Zn807       O816   2.034       .  S
Zn807       O823   2.020       .  S
Zn808       O811   1.958       .  S
Zn808       O813   2.036       .  S
Zn808       O815   2.021       .  S
Zn808       O819   2.018       .  S
Zn809       O811   1.922       .  S
Zn809       O814   1.931       .  S
Zn809       O817   1.932       .  S
Zn809       O820   1.930       .  S
Zn810       O811   1.961       .  S
Zn810       O818   2.035       .  S
Zn810       O821   2.015       .  S
Zn810       O822   2.018       .  S
O812        C824   1.274       .  A
O813        C825   1.273       .  A
O814        C826   1.262       .  A
O815        C824   1.273       .  A
O816        C826   1.273       .  A
O817        C825   1.261       .  A
O818        C827   1.273       .  A
O819        C828   1.273       .  A
O820        C827   1.262       .  A
O821        C828   1.273       .  A
O822        C829   1.273       .  A
O823        C829   1.274       .  A
C825        C967   1.463       .  S
C826        C971   1.464       .  S
C827        C975   1.464       .  S
C828       C1340   1.432   1_545  S
C829        C984   1.433       .  S
Zn830      O1195   2.019   1_545  S
Zn830       O839   2.041       .  S
Zn831       O836   2.035       .  S
Zn831       O838   2.027       .  S
Zn832       O834   1.919   1_545  S
Zn832       O843   1.931       .  S
Zn833       O834   1.958   1_545  S
Zn833       O841   2.032       .  S
Zn833      O1204   2.014   1_545  S
Zn833       O845   2.020       .  S
O835      Zn1190   2.025       .  S
O835        C847   1.274       .  A
O836        C848   1.273       .  A
O837        C849   1.261       .  A
O838        C847   1.274       .  A
O839        C849   1.274       .  A
O840        C848   1.262       .  A
O841        C850   1.273       .  A
O842        C851   1.274       .  A
O843        C850   1.261       .  A
O844      Zn1193   2.020       .  S
O844        C851   1.273       .  A
O845        C852   1.273       .  A
O846        C852   1.273       .  A
C847       C1022   1.438       .  S
C848        C972   1.464       .  S
C849        C968   1.465       .  S
C850        C976   1.462       .  S
C851       C1023   1.435       .  S
C852       C1025   1.433       .  S
C853        H854   1.111       .  S
C853        C859   1.551       .  S
C853        C858   1.553       .  S
C853        C857   1.554       .  S
C855        H856   1.112       .  S
C855        C861   1.529       .  S
C855        C860   1.527       .  S
C855        C862   1.529       .  S
C857        C958   1.492       .  S
C857        C860   1.373       .  D
C858        C941   1.499       .  S
C858        C861   1.373       .  D
C859        C948   1.490       .  S
C859        C862   1.369       .  D
C860       C1061   1.445       .  S
C861       C1060   1.443       .  S
C862       C1057   1.445       .  S
C863        H864   1.111       .  S
C863        C868   1.553   1_565  S
C863       C1227   1.551       .  S
C865        H866   1.112       .  S
C865        C871   1.534   1_565  S
C865       C1230   1.533       .  S
C867        C951   1.491       .  S
C867       C1223   1.550       .  S
C867        C870   1.369       .  D
C868        C938   1.499       .  S
C868        C871   1.372       .  D
C869        C961   1.492       .  S
C869        C872   1.373       .  D
C870       C1225   1.532       .  S
C870        C932   1.446       .  S
C871        C934   1.450       .  S
C872        C936   1.451       .  S
Zn873       O877   1.956       .  S
Zn873       O878   2.010       .  S
Zn873       O882   2.000       .  S
Zn873       O889   1.995       .  S
Zn874       O877   1.957       .  S
Zn874       O879   2.045       .  S
Zn874       O881   2.040       .  S
Zn874       O885   2.046       .  S
Zn875       O877   1.956       .  S
Zn875       O880   1.987       .  S
Zn875       O883   2.015       .  S
Zn875       O886   2.001       .  S
Zn876       O877   1.957       .  S
Zn876       O884   1.986       .  S
Zn876       O887   2.006       .  S
Zn876       O888   2.003       .  S
O878        C890   1.272       .  A
O879        C891   1.276       .  A
O880        C892   1.267       .  A
O881        C890   1.276       .  A
O882        C892   1.271       .  A
O883        C891   1.272       .  A
O884        C893   1.267       .  A
O885        C894   1.277       .  A
O886        C893   1.272       .  A
O887        C894   1.271       .  A
O888        C895   1.271       .  A
O889        C895   1.268       .  A
C890       C1019   1.437       .  S
C891       C1018   1.440       .  S
C892        C927   1.464       .  S
C893        C923   1.464       .  S
C894       C1015   1.438       .  S
C895        C920   1.467       .  S
Zn896       O900   1.956       .  S
Zn896       O901   1.993       .  S
Zn896       O905   1.997       .  S
Zn896       O912   2.002       .  S
Zn897       O900   1.954       .  S
Zn897       O902   1.992       .  S
Zn897       O904   2.001       .  S
Zn897       O908   2.011       .  S
Zn898       O900   1.952       .  S
Zn898       O903   1.988       .  S
Zn898       O906   1.995       .  S
Zn898       O909   2.007       .  S
Zn899       O900   1.956       .  S
Zn899       O907   2.050       .  S
Zn899       O910   2.047       .  S
Zn899       O911   2.043       .  S
O901        C913   1.267       .  A
O902        C914   1.268       .  A
O903        C915   1.267       .  A
O904        C913   1.272       .  A
O905        C915   1.271       .  A
O906        C914   1.271       .  A
O907        C916   1.277       .  A
O908        C917   1.272       .  A
O909        C916   1.271       .  A
O910        C917   1.277       .  A
O911        C918   1.277       .  A
O912        C918   1.271       .  A
C913        C919   1.468   1_554  S
C914        C924   1.466   1_554  S
C915        C928   1.463   1_554  S
C916        C933   1.439       .  S
C917        C935   1.440       .  S
C918        C931   1.435       .  S
C919        C920   1.342       .  D
C919        H921   1.087       .  S
C920        H922   1.087       .  S
C923       C1284   1.341       .  D
C923        H925   1.087       .  S
C924       C1283   1.342   1_545  D
C924        H926   1.087   1_545  S
C927        H929   1.087       .  S
C928        H930   1.087   1_655  S
C931        C932   1.206       .  T
C933        C934   1.208       .  T
C935        C936   1.209       .  T
C937        C938   1.401       .  A
C937        C942   1.402       .  A
C937       H1303   1.079   1_545  S
C938        C939   1.410       .  A
C939        C940   1.403       .  A
C940        C941   1.402       .  A
C940        H945   1.079       .  S
C941        C942   1.409       .  A
C942        H946   1.083       .  S
H943       C1297   1.079       .  S
C947        C948   1.407       .  A
C947        C952   1.402       .  A
C947        H953   1.083       .  S
C948        C949   1.401       .  A
C949        C950   1.402       .  A
C949        H954   1.080       .  S
C950        C951   1.407       .  A
C951        C952   1.402       .  A
C952        H956   1.079       .  S
C957        C958   1.400       .  A
C957        C962   1.401       .  A
C957        H963   1.083       .  S
C958        C959   1.410       .  A
C959        C960   1.403       .  A
C959        H964   1.083       .  S
C960        C961   1.401       .  A
C960        H965   1.083       .  S
C961        C962   1.409       .  A
C962       H1326   1.083       .  S
H966       C1322   1.083       .  S
C967        C968   1.352       .  D
C967        H969   1.087       .  S
C968        H970   1.087       .  S
C971        C972   1.351       .  D
C971        H973   1.087       .  S
C972        H974   1.087       .  S
C975        C976   1.351       .  D
C975        H977   1.087       .  S
C976        H978   1.087       .  S
C979        C980   1.205       .  T
C980       C1188   1.434       .  S
C981        C982   1.203       .  T
C983        C984   1.205       .  T
C985        C986   1.410       .  A
C985       C1350   1.403       .  A
C985        H991   1.083       .  S
C986        C987   1.400       .  A
C987       C1348   1.401       .  A
C987        H992   1.083       .  S
C988       C1347   1.402   1_545  A
C988        C989   1.410       .  A
C988        H993   1.083       .  S
C989        C990   1.400       .  A
C990       C1345   1.401   1_545  A
C990        H994   1.083       .  S
C995        C996   1.399       .  A
C995       H1001   1.077       .  S
C996        C997   1.409       .  A
C997       H1002   1.083       .  S
C998        C999   1.401       .  A
C998       H1003   1.077       .  S
C999       C1000   1.406       .  A
C1000      H1004   1.083       .  S
C1005      C1006   1.401       .  A
C1005      C1010   1.400       .  A
C1005      H1011   1.077       .  S
C1006      C1007   1.409       .  A
C1007      C1008   1.402       .  A
C1007      H1012   1.083       .  S
C1008      C1009   1.401       .  A
C1008      H1013   1.077       .  S
C1009      C1010   1.407       .  A
C1010      H1014   1.083       .  S
C1015      C1016   1.208       .  T
C1017      C1018   1.209       .  T
C1019      C1020   1.207       .  T
C1021      C1022   1.208       .  T
C1023      C1024   1.206       .  T
C1025      C1026   1.205       .  T
C1027      C1028   1.403       .  A
C1027      C1032   1.404       .  A
C1027      H1033   1.080       .  S
C1028      C1029   1.406       .  A
C1029      C1030   1.403       .  A
C1029      H1034   1.083       .  S
C1030      C1031   1.402       .  A
C1030      H1035   1.080       .  S
C1031      C1032   1.407       .  A
C1032      H1036   1.083       .  S
C1037      C1038   1.409       .  A
C1037      C1042   1.401       .  A
C1037      H1043   1.082       .  S
C1038      C1039   1.401       .  A
C1039      C1040   1.401       .  A
C1039      H1044   1.079       .  S
C1040      C1041   1.409       .  A
C1040      H1405   1.083       .  S
C1041      C1042   1.401       .  A
C1042      H1046   1.080       .  S
H1045      C1400   1.083       .  S
C1047      C1048   1.401       .  A
C1047      C1052   1.403       .  A
C1047      H1053   1.083       .  S
C1048      C1049   1.411       .  A
C1049      C1050   1.404       .  A
C1049      H1054   1.083       .  S
C1050      C1051   1.402       .  A
C1050      H1055   1.083       .  S
C1051      C1052   1.409       .  A
C1052      H1056   1.083       .  S
C1057      C1058   1.205       .  T
C1059      C1060   1.204       .  T
C1061      C1062   1.205       .  T
C1063      C1064   1.350       .  D
C1063      H1065   1.087       .  S
C1064      H1066   1.087       .  S
C1067      C1068   1.351       .  D
C1067      H1069   1.087       .  S
C1068      H1070   1.087       .  S
C1071      C1072   1.351       .  D
C1071      H1073   1.087       .  S
C1072      H1074   1.087       .  S
C1075      C1101   1.436   1_545  S
C1075      C1076   1.206       .  T
C1077      C1078   1.203       .  T
C1079      C1080   1.204       .  T
Zn1081     O1085   1.959       .  S
Zn1081     O1086   2.037       .  S
Zn1081     O1090   2.015       .  S
Zn1081     O1097   2.014       .  S
Zn1082     O1085   1.918       .  S
Zn1082     O1087   1.925       .  S
Zn1082     O1089   1.926       .  S
Zn1082     O1093   1.928       .  S
Zn1083     O1085   1.959       .  S
Zn1083     O1088   2.015       .  S
Zn1083     O1091   2.036       .  S
Zn1083     O1094   2.024       .  S
Zn1084     O1085   1.959       .  S
Zn1084     O1092   2.022       .  S
Zn1084     O1095   2.032       .  S
Zn1084     O1096   2.019       .  S
O1086      C1098   1.273       .  A
O1087      C1099   1.261       .  A
O1088      C1100   1.273       .  A
O1089      C1098   1.261       .  A
O1090      C1100   1.273       .  A
O1091      C1099   1.273       .  A
O1092      C1101   1.274       .  A
O1093      C1102   1.261       .  A
O1094      C1101   1.274       .  A
O1095      C1102   1.273       .  A
O1096      C1103   1.273       .  A
O1097      C1103   1.273       .  A
C1098      C1427   1.464       .  S
C1099      C1423   1.463       .  S
C1102      C1432   1.462       .  S
C1103      C1439   1.432       .  S
Zn1104     O1108   1.961       .  S
Zn1104     O1120   2.038       .  S
Zn1105     O1112   2.019       .  S
Zn1105     O1116   2.035       .  S
Zn1106     O1111   2.022       .  S
Zn1106     O1117   2.035       .  S
Zn1107     O1108   1.921       .  S
Zn1107     O1119   1.927       .  S
O1109      C1121   1.273       .  A
O1110      C1122   1.274       .  A
O1111      C1123   1.274       .  A
O1112      C1121   1.273       .  A
O1113      C1123   1.273       .  A
O1114      C1122   1.274       .  A
O1115      C1124   1.261       .  A
O1116      C1125   1.273       .  A
O1117      C1124   1.273       .  A
O1118      C1125   1.261       .  A
O1119      C1126   1.261       .  A
O1120      C1126   1.273       .  A
C1121      C1422   1.432       .  S
C1122      C1419   1.438       .  S
C1123      C1418   1.433       .  S
C1124      C1431   1.463       .  S
C1125      C1428   1.463       .  S
C1126      C1424   1.463       .  S
C1127      H1128   1.111       .  S
C1127      C1133   1.555       .  S
C1127      C1132   1.552       .  S
C1127      C1131   1.553       .  S
C1129      H1130   1.112       .  S
C1129      C1135   1.530       .  S
C1129      C1134   1.530       .  S
C1129      C1136   1.528       .  S
C1131      C1388   1.498       .  S
C1131      C1134   1.373       .  D
C1132      C1398   1.495       .  S
C1132      C1135   1.371       .  D
C1133      C1408   1.493       .  S
C1133      C1136   1.373       .  D
C1134      C1384   1.444       .  S
C1135      C1381   1.446       .  S
C1136      C1386   1.448       .  S
C1137      H1138   1.111       .  S
C1137      C1142   1.553   1_445  S
C1139      H1140   1.112       .  S
C1139      C1145   1.531   1_545  S
C1141      C1411   1.493       .  S
C1141      C1144   1.373       .  D
C1142      C1401   1.493       .  S
C1142      C1145   1.371       .  D
C1143      C1391   1.497       .  S
C1143      C1146   1.375       .  D
C1144      C1380   1.453       .  S
C1145      C1376   1.451       .  S
C1146      C1377   1.449       .  S
C1147      H1148   1.112       .  S
C1147      C1153   1.528       .  S
C1147      C1152   1.529       .  S
C1147      C1151   1.526       .  S
C1149      H1150   1.111       .  S
C1149      C1155   1.551       .  S
C1149      C1154   1.553       .  S
C1149      C1156   1.549       .  S
C1151      C1154   1.372       .  D
C1151      C1339   1.443       .  S
C1152      C1155   1.374       .  D
C1152      C1343   1.446       .  S
C1153      C1156   1.369       .  D
C1153      C1342   1.443       .  S
C1154      C1346   1.493       .  S
C1155      C1366   1.495       .  S
C1156      C1356   1.490       .  S
C1157      H1158   1.112       .  S
C1157      C1163   1.527       .  S
C1157      C1162   1.528       .  S
C1157      C1161   1.529       .  S
C1159      H1160   1.111       .  S
C1159      C1165   1.552       .  S
C1159      C1164   1.551       .  S
C1159      C1166   1.551       .  S
C1161      C1164   1.372       .  D
C1161      C1440   1.443       .  S
C1162      C1165   1.373       .  D
C1162      C1436   1.443       .  S
C1163      C1166   1.370       .  D
C1163      C1437   1.445       .  S
C1164      C1369   1.496       .  S
C1165      C1349   1.493       .  S
C1166      C1359   1.490       .  S
Zn1167     O1171   1.959       .  S
Zn1167     O1172   2.022       .  S
Zn1167     O1176   2.036       .  S
Zn1167     O1183   2.026       .  S
Zn1168     O1171   1.959       .  S
Zn1168     O1173   2.032       .  S
Zn1168     O1175   2.012       .  S
Zn1168     O1179   2.016       .  S
Zn1169     O1171   1.920       .  S
Zn1169     O1174   1.927       .  S
Zn1169     O1177   1.925       .  S
Zn1169     O1180   1.926       .  S
Zn1170     O1171   1.958       .  S
Zn1170     O1178   2.033       .  S
Zn1170     O1181   2.020       .  S
Zn1170     O1182   2.018       .  S
O1172      C1184   1.274       .  A
O1173      C1185   1.272       .  A
O1174      C1186   1.261       .  A
O1175      C1184   1.273       .  A
O1176      C1186   1.274       .  A
O1177      C1185   1.261       .  A
O1178      C1187   1.273       .  A
O1179      C1188   1.273       .  A
O1180      C1187   1.261       .  A
O1181      C1188   1.274       .  A
O1182      C1189   1.273       .  A
O1183      C1189   1.274       .  A
C1185      C1327   1.462       .  S
C1186      C1331   1.462       .  S
C1187      C1335   1.462       .  S
C1189      C1344   1.435       .  S
Zn1190     O1199   2.031       .  S
Zn1191     O1196   2.040       .  S
Zn1191     O1198   2.024       .  S
Zn1192     O1194   1.925       .  S
Zn1192     O1203   1.929       .  S
Zn1193     O1194   1.962       .  S
Zn1193     O1201   2.033       .  S
Zn1193     O1205   2.022       .  S
O1195      C1207   1.274       .  A
O1196      C1208   1.273       .  A
O1197      C1209   1.262       .  A
O1198      C1207   1.274       .  A
O1199      C1209   1.273       .  A
O1200      C1208   1.260       .  A
O1201      C1210   1.273       .  A
O1202      C1211   1.274       .  A
O1203      C1210   1.262       .  A
O1204      C1211   1.273       .  A
O1205      C1212   1.273       .  A
O1206      C1212   1.274       .  A
C1207      C1382   1.435       .  S
C1208      C1332   1.464       .  S
C1209      C1328   1.461       .  S
C1210      C1336   1.462       .  S
C1211      C1383   1.433       .  S
C1212      C1385   1.437       .  S
C1213      H1214   1.111       .  S
C1213      C1219   1.550       .  S
C1213      C1218   1.554       .  S
C1213      C1217   1.554       .  S
C1215      H1216   1.112       .  S
C1215      C1221   1.531       .  S
C1215      C1220   1.529       .  S
C1215      C1222   1.529       .  S
C1217      C1318   1.497       .  S
C1217      C1220   1.373       .  D
C1218      C1301   1.498       .  S
C1218      C1221   1.374       .  D
C1219      C1308   1.491       .  S
C1219      C1222   1.369       .  D
C1220      C1421   1.443       .  S
C1221      C1420   1.449       .  S
C1222      C1417   1.443       .  S
C1223      H1224   1.111   1_655  S
C1223      C1228   1.552       .  S
C1225      H1226   1.112       .  S
C1225      C1231   1.533       .  S
C1227      C1311   1.492       .  S
C1227      C1230   1.370       .  D
C1228      C1298   1.498       .  S
C1228      C1231   1.373       .  D
C1229      C1321   1.496       .  S
C1229      C1232   1.372       .  D
C1230      C1292   1.449       .  S
C1231      C1294   1.448       .  S
C1232      C1296   1.446       .  S
Zn1233     O1237   1.955       .  S
Zn1233     O1238   2.013       .  S
Zn1233     O1242   1.998       .  S
Zn1233     O1249   1.989       .  S
Zn1234     O1237   1.956       .  S
Zn1234     O1239   2.044       .  S
Zn1234     O1241   2.050       .  S
Zn1234     O1245   2.044       .  S
Zn1235     O1237   1.957       .  S
Zn1235     O1240   1.986       .  S
Zn1235     O1243   2.007       .  S
Zn1235     O1246   2.001       .  S
Zn1236     O1237   1.956       .  S
Zn1236     O1244   1.993       .  S
Zn1236     O1247   2.015       .  S
Zn1236     O1248   2.002       .  S
O1238      C1250   1.272       .  A
O1239      C1251   1.277       .  A
O1240      C1252   1.267       .  A
O1241      C1250   1.277       .  A
O1242      C1252   1.272       .  A
O1243      C1251   1.272       .  A
O1244      C1253   1.268       .  A
O1245      C1254   1.277       .  A
O1246      C1253   1.271       .  A
O1247      C1254   1.273       .  A
O1248      C1255   1.272       .  A
O1249      C1255   1.268       .  A
C1250      C1379   1.442       .  S
C1251      C1378   1.438       .  S
C1252      C1287   1.463       .  S
C1253      C1283   1.466       .  S
C1254      C1375   1.440       .  S
C1255      C1280   1.466       .  S
Zn1256     O1260   1.954       .  S
Zn1256     O1261   1.993       .  S
Zn1256     O1265   2.002       .  S
Zn1256     O1272   2.014       .  S
Zn1257     O1260   1.954       .  S
Zn1257     O1262   1.987       .  S
Zn1257     O1264   1.997       .  S
Zn1257     O1268   2.004       .  S
Zn1258     O1260   1.955       .  S
Zn1258     O1263   1.992       .  S
Zn1258     O1266   1.999       .  S
Zn1258     O1269   2.008       .  S
Zn1259     O1260   1.955       .  S
Zn1259     O1267   2.042       .  S
Zn1259     O1270   2.038       .  S
Zn1259     O1271   2.039       .  S
O1261      C1273   1.268       .  A
O1262      C1274   1.267       .  A
O1263      C1275   1.268       .  A
O1264      C1273   1.271       .  A
O1265      C1275   1.272       .  A
O1266      C1274   1.272       .  A
O1267      C1276   1.276       .  A
O1268      C1277   1.271       .  A
O1269      C1276   1.272       .  A
O1270      C1277   1.275       .  A
O1271      C1278   1.276       .  A
O1272      C1278   1.273       .  A
C1273      C1279   1.466   1_554  S
C1274      C1284   1.464   1_554  S
C1275      C1288   1.466   1_554  S
C1276      C1293   1.437       .  S
C1277      C1295   1.435       .  S
C1278      C1291   1.438       .  S
C1279      C1280   1.342       .  D
C1279      H1281   1.087       .  S
C1280      H1282   1.087       .  S
C1283      H1285   1.087   1_565  S
C1284      H1286   1.087       .  S
C1287      H1289   1.087       .  S
C1288      H1290   1.087   1_655  S
C1291      C1292   1.208       .  T
C1293      C1294   1.207       .  T
C1295      C1296   1.206       .  T
C1297      C1298   1.401       .  A
C1297      C1302   1.401       .  A
C1298      C1299   1.409       .  A
C1299      C1300   1.401       .  A
C1300      C1301   1.402       .  A
C1300      H1305   1.080       .  S
C1301      C1302   1.409       .  A
C1302      H1306   1.082       .  S
C1307      C1308   1.406       .  A
C1307      C1312   1.402       .  A
C1307      H1313   1.083       .  S
C1308      C1309   1.402       .  A
C1309      C1310   1.403       .  A
C1309      H1314   1.080       .  S
C1310      C1311   1.407       .  A
C1311      C1312   1.402       .  A
C1312      H1316   1.080       .  S
C1317      C1318   1.401       .  A
C1317      C1322   1.403       .  A
C1317      H1323   1.083       .  S
C1318      C1319   1.411       .  A
C1319      C1320   1.403       .  A
C1319      H1324   1.083       .  S
C1320      C1321   1.401       .  A
C1320      H1325   1.083       .  S
C1321      C1322   1.410       .  A
C1327      C1328   1.351       .  D
C1327      H1329   1.087       .  S
C1328      H1330   1.087       .  S
C1331      C1332   1.352       .  D
C1331      H1333   1.087       .  S
C1332      H1334   1.087       .  S
C1335      C1336   1.351       .  D
C1335      H1337   1.087       .  S
C1336      H1338   1.087       .  S
C1339      C1340   1.204       .  T
C1341      C1342   1.204       .  T
C1343      C1344   1.206       .  T
C1345      C1346   1.410       .  A
C1345      H1351   1.083       .  S
C1346      C1347   1.401       .  A
C1347      H1352   1.083       .  S
C1348      C1349   1.409       .  A
C1348      H1353   1.083       .  S
C1349      C1350   1.402       .  A
C1350      H1354   1.083       .  S
C1355      C1356   1.402       .  A
C1355      H1361   1.079       .  S
C1356      C1357   1.406       .  A
C1357      H1362   1.083       .  S
C1358      C1359   1.401       .  A
C1358      H1363   1.077       .  S
C1359      C1360   1.406       .  A
C1360      H1364   1.083       .  S
C1365      C1366   1.402       .  A
C1365      C1370   1.401       .  A
C1365      H1371   1.079       .  S
C1366      C1367   1.408       .  A
C1367      C1368   1.399       .  A
C1367      H1372   1.082       .  S
C1368      C1369   1.400       .  A
C1368      H1373   1.077       .  S
C1369      C1370   1.409       .  A
C1370      H1374   1.083       .  S
C1375      C1376   1.209       .  T
C1377      C1378   1.208       .  T
C1379      C1380   1.210       .  T
C1381      C1382   1.206       .  T
C1383      C1384   1.205       .  T
C1385      C1386   1.207       .  T
C1387      C1388   1.401       .  A
C1387      C1392   1.400       .  A
C1387      H1393   1.076       .  S
C1388      C1389   1.409       .  A
C1389      C1390   1.403       .  A
C1389      H1394   1.083       .  S
C1390      C1391   1.402       .  A
C1390      H1395   1.080       .  S
C1391      C1392   1.408       .  A
C1392      H1396   1.082       .  S
C1397      C1398   1.408       .  A
C1397      C1402   1.402       .  A
C1397      H1403   1.083       .  S
C1398      C1399   1.401       .  A
C1399      C1400   1.400       .  A
C1399      H1404   1.076       .  S
C1400      C1401   1.406       .  A
C1401      C1402   1.402       .  A
C1402      H1406   1.077       .  S
C1407      C1408   1.401       .  A
C1407      C1412   1.402       .  A
C1407      H1413   1.083       .  S
C1408      C1409   1.410       .  A
C1409      C1410   1.402       .  A
C1409      H1414   1.083       .  S
C1410      C1411   1.401       .  A
C1410      H1415   1.083       .  S
C1411      C1412   1.409       .  A
C1412      H1416   1.083       .  S
C1417      C1418   1.204       .  T
C1419      C1420   1.208       .  T
C1421      C1422   1.204       .  T
C1423      C1424   1.352       .  D
C1423      H1425   1.087       .  S
C1424      H1426   1.087       .  S
C1427      C1428   1.352       .  D
C1427      H1429   1.087       .  S
C1428      H1430   1.087       .  S
C1431      C1432   1.351       .  D
C1431      H1433   1.087       .  S
C1432      H1434   1.087       .  S
C1435      C1436   1.204       .  T
C1437      C1438   1.206       .  T
C1439      C1440   1.204       .  T
