geometry optimzed in LAMMPS
_audit_creation_date              2020-11-30 
_audit_creation_method            'lammps2cif' 
_symmetry_space_group_name_H-M    'P1' 
_symmetry_Int_Tables_number       1 
_symmetry_cell_setting            triclinic 
loop_ 
_symmetry_equiv_pos_as_xyz 
  x,y,z 
_cell_length_a                    32.029137 
_cell_length_b                    32.03790369967117 
_cell_length_c                    45.95945302602499 
_cell_angle_alpha                 89.99319987789849 
_cell_angle_beta                  89.88837389364485 
_cell_angle_gamma                 119.97501858744793 
loop_ 
_atom_site_label 
_atom_site_type_symbol 
_atom_site_fract_x 
_atom_site_fract_y 
_atom_site_fract_z 
_atom_site_charge 
O1          O  0.21854370  0.78189832  0.04771454    -0.85500
O2          O  0.26639654  0.74863358  0.08082890    -0.82600
C3          C  0.30668705  0.78522337  0.08682369     0.97900
O4          O  0.30863574  0.81844308  0.10255817    -0.82600
O5          O  0.27730760  0.87096467  0.13511137    -0.85200
C6          C  0.27342910  0.89836356  0.11690869     1.02500
O7          O  0.24225889  0.88082910  0.09704798    -0.78000
O8          O  0.17381096  0.81370921  0.05921715    -0.78200
C9          C  0.19690783  0.80400177  0.04042327     1.02400
O10         O  0.12968588  0.71851558  0.07594224    -0.85500
O11         O  0.18000564  0.69085668  0.11361711    -0.82600
C12         C  0.21217692  0.69415193  0.13084225     0.98000
O13         O  0.24828391  0.73491592  0.13625498    -0.82600
O14         O  0.20969883  0.78384898  0.16311428    -0.85200
C15         C  0.18777155  0.80671733  0.16746755     1.02400
O16         O  0.18260212  0.83047952  0.14702869    -0.78000
O17         O  0.11880813  0.76031997  0.10981693    -0.78200
C18         C  0.10199014  0.72615161  0.09187304     1.02400
Cr19       Cr  0.19940641  0.73847468  0.08137939     1.93700
Cr20       Cr  0.25766006  0.80120311  0.13221956     1.93200
Cr21       Cr  0.18176094  0.81896909  0.10336127     1.39100
O22         O  0.21292798  0.78637048  0.10552172    -1.23300
O23         O  0.21010696  0.78631971  0.29402118    -0.85500
O24         O  0.26044581  0.74953050  0.32176786    -0.82600
C25         C  0.30140632  0.78596783  0.32660036     0.97900
O26         O  0.30519660  0.81828848  0.34381631    -0.82600
O27         O  0.27945219  0.87029130  0.38066991    -0.85200
C28         C  0.27264612  0.89835734  0.36466025     1.02500
O29         O  0.23898077  0.88190939  0.34626535    -0.78000
O30         O  0.16573027  0.81617430  0.30999121    -0.78200
C31         C  0.18467469  0.80536532  0.28913005     1.02400
O32         O  0.12462336  0.72182128  0.32407838    -0.85500
O33         O  0.17659791  0.69138157  0.35684817    -0.82600
C34         C  0.20980301  0.69291050  0.37222188     0.98000
O35         O  0.24728695  0.73286923  0.37750750    -0.82600
O36         O  0.21527896  0.78389680  0.40981002    -0.85200
C37         C  0.19758169  0.80987763  0.41678797     1.02400
O38         O  0.18581386  0.83031276  0.39736138    -0.78000
O39         O  0.11621423  0.76049851  0.36087690    -0.78200
C40         C  0.09798012  0.72810676  0.34168422     1.02400
Cr41       Cr  0.19410143  0.74076633  0.32619855     1.93700
Cr42       Cr  0.25817749  0.80037364  0.37608779     1.93200
Cr43       Cr  0.17904002  0.81978848  0.35352420     1.39100
O44         O  0.21028559  0.78709034  0.35198550    -1.23300
O45         O  0.21246345  0.43801488  0.13226592    -0.85500
O46         O  0.24831072  0.51944049  0.16516146    -0.82600
C47         C  0.21193208  0.52352724  0.17150360     0.97900
O48         O  0.17923928  0.49302652  0.18787522    -0.82600
O49         O  0.12595760  0.40974411  0.22061955    -0.85200
C50         C  0.09778579  0.37980022  0.20208696     1.02500
O51         O  0.11425511  0.36618759  0.18155513    -0.78000
O52         O  0.17972522  0.36138268  0.14320175    -0.78200
C53         C  0.19313120  0.39478433  0.12436307     1.02400
O54         O  0.27452049  0.40985712  0.15951385    -0.85500
O55         O  0.30529571  0.48785982  0.19671117    -0.82600
C56         C  0.30391798  0.51814069  0.21353495     0.98000
O57         O  0.26380719  0.51445185  0.22008995    -0.82600
O58         O  0.21346219  0.42688922  0.24714630    -0.85200
C59         C  0.18859454  0.38224367  0.25159054     1.02400
O60         O  0.16334899  0.35387029  0.23127778    -0.78000
O61         O  0.23173800  0.35714077  0.19325194    -0.78200
C62         C  0.26591250  0.37391648  0.17516102     1.02400
Cr63       Cr  0.25668205  0.46119103  0.16526462     1.93700
Cr64       Cr  0.19635455  0.45861009  0.21698446     1.93200
Cr65       Cr  0.17448860  0.36423853  0.18743438     1.39100
O66         O  0.20914424  0.42783260  0.18980699    -1.23300
O67         O  0.21057423  0.42902038  0.37724546    -0.85500
O68         O  0.24657359  0.51675213  0.40461969    -0.82600
C69         C  0.21013527  0.52124333  0.40964509     0.97900
O70         O  0.17762733  0.49215845  0.42660555    -0.82600
O71         O  0.12563932  0.41443463  0.46310395    -0.85200
C72         C  0.09841477  0.37774731  0.44802384     1.02500
O73         O  0.11568375  0.35976793  0.43072531    -0.78000
O74         O  0.18241358  0.35541548  0.39410721    -0.78200
C75         C  0.19178168  0.38437741  0.37296710     1.02400
O76         O  0.27625870  0.40991328  0.40699187    -0.85500
O77         O  0.30552623  0.49258301  0.43974167    -0.82600
C78         C  0.30329269  0.52376052  0.45531552     0.98000
O79         O  0.26299115  0.52077236  0.46046676    -0.82600
O80         O  0.21336918  0.43891936  0.49297995    -0.85200
C81         C  0.19175871  0.39507919  0.49998743     1.02400
O82         O  0.16922994  0.36253823  0.48117167    -0.78000
O83         O  0.23976969  0.36512649  0.44496880    -0.78200
C84         C  0.27110958  0.37826133  0.42521990     1.02400
Cr85       Cr  0.25622225  0.45976115  0.40919428     1.93700
Cr86       Cr  0.19574007  0.46379886  0.45899290     1.93200
Cr87       Cr  0.17912185  0.36563322  0.43752642     1.39100
O88         O  0.20993553  0.42947168  0.43516964    -1.20900
O89         O  0.55937597  0.78590689  0.46145502    -0.85500
O90         O  0.47697733  0.73402044  0.49269229    -0.82600
C91         C  0.47365768  0.69326662  0.49683956     0.97900
O92         O  0.50415696  0.69009099  0.01555521    -0.82600
O93         O  0.58679569  0.71757501  0.04842562    -0.85200
C94         C  0.61787991  0.72139831  0.03007945     1.02500
O95         O  0.63139948  0.75280913  0.01033091    -0.78000
O96         O  0.63558561  0.82718766  0.47413757    -0.78200
C97         C  0.60321449  0.80965851  0.45467438     1.02400
O98         O  0.58371150  0.87123056  0.49326887    -0.85500
O99         O  0.50733771  0.81866001  0.03107151    -0.82600
C100        C  0.47756052  0.78542332  0.04724024     0.98000
O101        O  0.48090097  0.74818912  0.05110418    -0.82600
O102        O  0.56871325  0.78428706  0.07833059    -0.85200
C103        C  0.61345028  0.80392204  0.08246948     1.02400
O104        O  0.64221416  0.81120915  0.06140666    -0.78000
O105        O  0.64069553  0.87899224  0.02466813    -0.78200
C106        C  0.62199302  0.89743015  0.00889843     1.02400
Cr107      Cr  0.53396968  0.80119123  0.49589448     1.93700
Cr108      Cr  0.53772476  0.73871998  0.04625694     1.93200
Cr109      Cr  0.63241460  0.81439284  0.01779810     1.39100
O110        O  0.56860091  0.78515165  0.02031171    -1.23300
O111        O  0.56805843  0.78355879  0.20909159    -0.85500
O112        O  0.48148982  0.73236399  0.23754630    -0.82600
C113        C  0.47775487  0.69250903  0.24505704     0.97900
O114        O  0.50726791  0.69162598  0.26279174    -0.82600
O115        O  0.58600292  0.72433974  0.29971929    -0.85200
C116        C  0.62005835  0.72976896  0.28325444     1.02500
O117        O  0.63588581  0.76167158  0.26368165    -0.78000
O118        O  0.64137385  0.83157654  0.22514066    -0.78200
C119        C  0.61264786  0.80861838  0.20450954     1.02400
O120        O  0.58561817  0.87100180  0.23677378    -0.85500
O121        O  0.50238916  0.81790270  0.26923905    -0.82600
C122        C  0.47173463  0.78554122  0.28565835     0.98000
O123        O  0.47630743  0.74981397  0.29265458    -0.82600
O124        O  0.55942634  0.78953369  0.32458690    -0.85200
C125        C  0.60322832  0.81079759  0.33160417     1.02400
O126        O  0.63527263  0.81752299  0.31292180    -0.78000
O127        O  0.63163265  0.88188818  0.27456373    -0.78200
C128        C  0.61640638  0.89868853  0.25517312     1.02400
Cr129      Cr  0.53679863  0.80036127  0.24012428     1.93700
Cr130      Cr  0.53485846  0.74218139  0.29303067     1.93200
Cr131      Cr  0.63145924  0.82072560  0.26886900     1.39100
O132        O  0.56781060  0.78769299  0.26721978    -1.23300
O133        O  0.77505237  0.21120751  0.17323599    -0.85500
O134        O  0.72634793  0.24847470  0.20266340    -0.82600
C135        C  0.68623473  0.21282298  0.21021268     0.97900
O136        O  0.68481603  0.18152684  0.22742934    -0.82600
O137        O  0.71669348  0.13262327  0.26234107    -0.85200
C138        C  0.72075315  0.10477353  0.24447449     1.02500
O139        O  0.75370745  0.12147180  0.22558956    -0.78000
O140        O  0.82379274  0.18592564  0.18789820    -0.78200
C141        C  0.79972770  0.19148659  0.16789894     1.02400
O142        O  0.86405729  0.27972452  0.20020468    -0.85500
O143        O  0.81293618  0.31082529  0.23363357    -0.82600
C144        C  0.78156301  0.30939291  0.25083436     0.98000
O145        O  0.74568349  0.26921953  0.25800017    -0.82600
O146        O  0.78383710  0.22334749  0.28831996    -0.85200
C147        C  0.80499422  0.20048653  0.29472259     1.02400
O148        O  0.81049799  0.17488326  0.27568115    -0.78000
O149        O  0.87519032  0.24371374  0.23747622    -0.78200
C150        C  0.89202721  0.27574130  0.21802681     1.02400
Cr151      Cr  0.79377902  0.25928684  0.20430900     1.93700
Cr152      Cr  0.73605062  0.20237447  0.25716886     1.93200
Cr153      Cr  0.81338450  0.18364093  0.23164051     1.39100
O154        O  0.78108369  0.21508383  0.23100153    -1.23300
O155        O  0.78120037  0.21450048  0.04061962    -0.85500
O156        O  0.75002169  0.26822041  0.01196563    -0.82600
C157        C  0.78754554  0.30869036  0.00749574     0.97900
O158        O  0.81422570  0.31080062  0.49228963    -0.82600
O159        O  0.86823590  0.28755647  0.45602966    -0.85200
C160        C  0.89446399  0.27748534  0.47153046     1.02500
O161        O  0.87568424  0.24255114  0.48902111    -0.78000
O162        O  0.81260510  0.17121963  0.02497524    -0.78200
C163        C  0.80125540  0.19009909  0.04561867     1.02400
O164        O  0.71587861  0.12998692  0.00953300    -0.85500
O165        O  0.68682657  0.18563465  0.47310141    -0.82600
C166        C  0.69071751  0.22027879  0.45810202     0.98000
O167        O  0.73154545  0.25790645  0.45507510    -0.82600
O168        O  0.78433609  0.22739268  0.42391249    -0.85200
C169        C  0.80775203  0.20665117  0.41757074     1.02400
O170        O  0.82494469  0.19177880  0.43734029    -0.78000
O171        O  0.75406837  0.12205263  0.47315092    -0.78200
C172        C  0.71961624  0.10337632  0.49101198     1.02400
Cr173      Cr  0.73801574  0.20070903  0.00755177     1.93700
Cr174      Cr  0.79826324  0.26700586  0.45876956     1.93200
Cr175      Cr  0.81287200  0.18442084  0.48105687     1.39100
O176        O  0.78113927  0.21670464  0.48179617    -1.23300
O177        O  0.78720610  0.56512855  0.00755215    -0.85500
O178        O  0.75077951  0.48253327  0.03979999    -0.82600
C179        C  0.78719264  0.47930720  0.04702528     0.97900
O180        O  0.81896533  0.51065999  0.06331746    -0.82600
O181        O  0.86833636  0.59420047  0.09587182    -0.85200
C182        C  0.89606052  0.62620076  0.07801827     1.02500
O183        O  0.87894243  0.64057906  0.05830146    -0.78000
O184        O  0.81349124  0.64072221  0.01899305    -0.78200
C185        C  0.80753515  0.60887889  0.00035400     1.02400
O186        O  0.71916194  0.58786958  0.03231339    -0.85500
O187        O  0.68897066  0.50902010  0.06956939    -0.82600
C188        C  0.69118234  0.48068986  0.08781287     0.98000
O189        O  0.73183539  0.48596609  0.09478849    -0.82600
O190        O  0.77900812  0.57271446  0.12226643    -0.85200
C191        C  0.80143901  0.61725309  0.12724768     1.02400
O192        O  0.82518231  0.64703014  0.10713771    -0.78000
O193        O  0.75526384  0.63857591  0.06803604    -0.78200
C194        C  0.72322264  0.62142719  0.04866744     1.02400
Cr195      Cr  0.73984886  0.53888279  0.03919781     1.93700
Cr196      Cr  0.79874165  0.54331561  0.09203431     1.93200
Cr197      Cr  0.81591893  0.63704006  0.06324516     1.39100
O198        O  0.78492666  0.57322520  0.06483466    -1.23300
O199        O  0.77817996  0.56460238  0.37039689    -0.85500
O200        O  0.72861953  0.48212838  0.33890557    -0.82600
C201        C  0.68813564  0.47896760  0.33437755     0.97900
O202        O  0.68545779  0.50939295  0.31826186    -0.82600
O203        O  0.71423277  0.59115087  0.28449474    -0.85200
C204        C  0.72038988  0.62452031  0.30168511     1.02500
O205        O  0.75273034  0.63903895  0.32091504    -0.78000
O206        O  0.82314474  0.64053218  0.35760548    -0.78200
C207        C  0.80359753  0.60827130  0.37714906     1.02400
O208        O  0.86518357  0.58876074  0.34128111    -0.85500
O209        O  0.81414066  0.51087104  0.30454904    -0.82600
C210        C  0.78119450  0.48085437  0.28833271     0.98000
O211        O  0.74411785  0.48428298  0.28353427    -0.82600
O212        O  0.77963180  0.57053369  0.25488809    -0.85200
C213        C  0.79811991  0.61480456  0.24950382     1.02400
O214        O  0.80859726  0.64501211  0.27004693    -0.78000
O215        O  0.87516251  0.63976868  0.30654057    -0.78200
C216        C  0.89252715  0.62372547  0.32510539     1.02400
Cr217      Cr  0.79552488  0.53911636  0.33684660     1.93700
Cr218      Cr  0.73430858  0.54127562  0.28723308     1.93200
Cr219      Cr  0.81254655  0.63640016  0.31373598     1.39100
O220        O  0.78082396  0.57257013  0.31269347    -1.23300
O221        O  0.43003140  0.22068853  0.08984541    -0.85500
O222        O  0.51480099  0.26941539  0.12050764    -0.82600
C223        C  0.51773080  0.30948016  0.12621181     0.97900
O224        O  0.48643473  0.31085359  0.14218444    -0.82600
O225        O  0.40418200  0.27964159  0.17604305    -0.85200
C226        C  0.37001592  0.27217734  0.15914693     1.02500
O227        O  0.35516136  0.23923079  0.14032286    -0.78000
O228        O  0.35504176  0.17124173  0.10297404    -0.78200
C229        C  0.38590907  0.19632454  0.08361446     1.02400
O230        O  0.40848917  0.13210695  0.11679963    -0.85500
O231        O  0.48777350  0.18291889  0.15275977    -0.82600
C232        C  0.51631391  0.21440984  0.17038296     0.98000
O233        O  0.51228678  0.25105130  0.17593585    -0.82600
O234        O  0.42698037  0.21517042  0.20514198    -0.85200
C235        C  0.38279266  0.19583834  0.21094861     1.02400
O236        O  0.35206322  0.18429364  0.19068656    -0.78000
O237        O  0.36021177  0.11979879  0.15363883    -0.78200
C238        C  0.37604548  0.10365612  0.13416265     1.02400
Cr239      Cr  0.45768970  0.20207252  0.12182826     1.93700
Cr240      Cr  0.45511450  0.26084408  0.17286290     1.93200
Cr241      Cr  0.36032041  0.18089260  0.14694363     1.39100
O242        O  0.42417453  0.21461049  0.14725925    -1.23300
O243        O  0.42697738  0.21891475  0.33877907    -0.85500
O244        O  0.51291602  0.26895375  0.36747817    -0.82600
C245        C  0.51587386  0.30898116  0.37317596     0.97900
O246        O  0.48529630  0.31065597  0.38959605    -0.82600
O247        O  0.40635648  0.28075969  0.42552662    -0.85200
C248        C  0.37143928  0.27306465  0.40934685     1.02500
O249        O  0.35523490  0.23922667  0.39103578    -0.78000
O250        O  0.35264532  0.17031401  0.35334761    -0.78200
C251        C  0.38252915  0.19485092  0.33343636     1.02400
O252        O  0.40789513  0.13164011  0.36624175    -0.85500
O253        O  0.48929277  0.18435182  0.40044618    -0.82600
C254        C  0.51919263  0.21722085  0.41688134     0.98000
O255        O  0.51472760  0.25347254  0.42265348    -0.82600
O256        O  0.43118067  0.21782652  0.45402923    -0.85200
C257        C  0.38728312  0.19870717  0.46061912     1.02400
O258        O  0.35534860  0.18565581  0.44098658    -0.78000
O259        O  0.36049732  0.11965312  0.40347058    -0.78200
C260        C  0.37553877  0.10324896  0.38364470     1.02400
Cr261      Cr  0.45671052  0.20169619  0.37016311     1.93700
Cr262      Cr  0.45688521  0.26210144  0.42104357     1.93200
Cr263      Cr  0.36066797  0.18096163  0.39719409     1.39100
O264        O  0.42451212  0.21473657  0.39625847    -1.23300
C265        C  0.34022809  0.15155988  0.25693247    -0.21500
C266        C  0.36971145  0.19465739  0.24181165    -0.09500
C267        C  0.39388926  0.23806125  0.25737501     0.29300
C268        C  0.39269168  0.23796348  0.28756698    -0.21500
C269        C  0.36782062  0.19462488  0.30302193    -0.09500
C270        C  0.33915567  0.15148550  0.28761196     0.29300
F271        F  0.31429619  0.10898732  0.30203552    -0.20100
H272        H  0.32127821  0.11780663  0.24523602     0.17700
H273        H  0.41468929  0.27156934  0.29898440     0.17700
F274        F  0.42208822  0.28040751  0.24335511    -0.20000
C275        C  0.39690990  0.23948666  0.03754373    -0.21500
C276        C  0.37254198  0.19601118  0.05290482    -0.09500
C277        C  0.34494684  0.15273952  0.03739990     0.29300
C278        C  0.34565814  0.15301279  0.00675600    -0.21500
C279        C  0.37548304  0.19905573  0.49148821    -0.09500
C280        C  0.39793684  0.23974582  0.00732958     0.29300
F281        F  0.43027434  0.28448249  0.49239041    -0.20100
H282        H  0.41841131  0.27311095  0.04903118     0.17700
H283        H  0.32406809  0.12300470  0.49524011     0.17700
F284        F  0.32164351  0.10998762  0.05167746    -0.20000
C285        C  0.59941617  0.43593137  0.34567223    -0.21500
C286        C  0.64393420  0.43703004  0.34598008    -0.09500
C287        C  0.64541861  0.39623914  0.35602592     0.29300
C288        C  0.60326096  0.35493635  0.36428035    -0.21500
C289        C  0.55886220  0.35351910  0.36360875    -0.09500
C290        C  0.55715647  0.39466113  0.35487774     0.29300
F291        F  0.51467684  0.39444390  0.35441370    -0.20100
H292        H  0.59730972  0.46686002  0.33820574     0.17700
H293        H  0.60545580  0.32395066  0.37160620     0.17700
F294        F  0.68737434  0.39546487  0.35727717    -0.20000
C295        C  0.80287868  0.64908393  0.42366581    -0.21500
C296        C  0.81527224  0.61917933  0.40812367    -0.09500
C297        C  0.83357311  0.59355300  0.42315507     0.29300
C298        C  0.83546842  0.59449501  0.45340177    -0.21500
C299        C  0.81922213  0.62100019  0.46925199    -0.09500
C300        C  0.80481951  0.65002976  0.45421967     0.29300
F301        F  0.78793320  0.67519045  0.46903373    -0.20100
H302        H  0.78846941  0.66877941  0.41236946     0.17700
H303        H  0.84668346  0.57192371  0.46455488     0.17700
F304        F  0.84684732  0.56511970  0.40856309    -0.20000
C305        C  0.84266837  0.65909625  0.20399116    -0.21500
C306        C  0.79950568  0.62845186  0.21875580    -0.09500
C307        C  0.75650583  0.60371394  0.20287608     0.29300
C308        C  0.75711093  0.60602458  0.17271255    -0.21500
C309        C  0.80065399  0.63204815  0.15754621    -0.09500
C310        C  0.84335224  0.66085628  0.17331682     0.29300
F311        F  0.88613422  0.68632248  0.15922725    -0.20100
H312        H  0.87615004  0.67831495  0.21593387     0.17700
H313        H  0.72388279  0.58360348  0.16103272     0.17700
F314        F  0.71422886  0.57370811  0.21648061    -0.20000
C315        C  0.60123972  0.43551505  0.09644812    -0.21500
C316        C  0.64647936  0.43851943  0.09925428    -0.09500
C317        C  0.64833184  0.39915468  0.11160114     0.29300
C318        C  0.60610798  0.35760609  0.11987896    -0.21500
C319        C  0.56107676  0.35442089  0.11688028    -0.09500
C320        C  0.55886335  0.39405644  0.10557958     0.29300
F321        F  0.51577371  0.39204536  0.10243047    -0.20100
H322        H  0.59864975  0.46511671  0.08704880     0.17700
H323        H  0.60867027  0.32776877  0.12897586     0.17700
F324        F  0.69081000  0.39992963  0.11501170    -0.20000
C325        C  0.73922298  0.35143020  0.52265778    -0.21500
C326        C  0.78990482  0.35246383  0.01976812    -0.09500
C327        C  0.83357317  0.39623499  0.02311484     0.29300
C328        C  0.83313445  0.43767412  0.03267625    -0.21500
C329        C  0.78918815  0.43603802  0.03831171    -0.09500
C330        C  0.74591966  0.39194191  0.03569725     0.29300
F331        F  0.69684141  0.39229947  0.53281969    -0.20100
H332        H  0.70507345  0.32018488  0.51695167     0.17700
H333        H  0.86688113  0.47118993  0.03495844     0.17700
F334        F  0.87640941  0.39895617  0.01722019    -0.20000
C335        C  0.60446548  0.17460373  0.44213237    -0.21500
C336        C  0.64715883  0.21885290  0.44628517    -0.09500
C337        C  0.64696390  0.26196805  0.44079798     0.29300
C338        C  0.60493635  0.26066363  0.43160854    -0.21500
C339        C  0.56234376  0.21657827  0.42733154    -0.09500
C340        C  0.56241018  0.17336906  0.43245642     0.29300
F341        F  0.52165449  0.13015578  0.42891932    -0.20100
H342        H  0.60363254  0.14096638  0.44645406     0.17700
H343        H  0.60587735  0.29445992  0.42758976     0.17700
F344        F  0.68688226  0.30557588  0.44522222    -0.20000
C345        C  0.80595925  0.16170343  0.37216752    -0.21500
C346        C  0.81858074  0.20509681  0.38654051    -0.09500
C347        C  0.83638737  0.24777337  0.37023771     0.29300
C348        C  0.83702576  0.24635625  0.34000962    -0.21500
C349        C  0.81962525  0.20242299  0.32533469    -0.09500
C350        C  0.80637430  0.16026773  0.34154946     0.29300
F351        F  0.78911241  0.11718462  0.32794430    -0.20100
H352        H  0.79228743  0.12854892  0.38444272     0.17700
H353        H  0.84769688  0.27927238  0.32794987     0.17700
F354        F  0.85022339  0.29058154  0.38355966    -0.20000
C355        C  0.76112991  0.15182804  0.09140492    -0.21500
C356        C  0.80462004  0.17911504  0.07626557    -0.09500
C357        C  0.84792459  0.20356999  0.09188523     0.29300
C358        C  0.84696253  0.20310248  0.12246475    -0.21500
C359        C  0.80275420  0.17905080  0.13746613    -0.09500
C360        C  0.76004460  0.15202395  0.12171741     0.29300
F361        F  0.71684923  0.12903322  0.13563872    -0.20100
H362        H  0.72734791  0.13338413  0.07963461     0.17700
H363        H  0.88010128  0.22512699  0.13431042     0.17700
F364        F  0.89017190  0.23154114  0.07773764    -0.20000
C365        C  0.74195340  0.35128791  0.27303743    -0.21500
C366        C  0.78364298  0.35425769  0.26089169    -0.09500
C367        C  0.82507431  0.39999073  0.25736542     0.29300
C368        C  0.82457432  0.44156564  0.26637750    -0.21500
C369        C  0.78243629  0.43810062  0.27803524    -0.09500
C370        C  0.74111371  0.39262618  0.28122848     0.29300
F371        F  0.70013750  0.38797428  0.29310115    -0.20100
H372        H  0.70937542  0.31680069  0.27583946     0.17700
H373        H  0.85676910  0.47646160  0.26388948     0.17700
F374        F  0.86591177  0.40460613  0.24533917    -0.20000
C375        C  0.59859701  0.25451646  0.19127870    -0.21500
C376        C  0.55764396  0.21166552  0.18251834    -0.09500
C377        C  0.55834022  0.16805866  0.18414654     0.29300
C378        C  0.59991025  0.16798489  0.19374425    -0.21500
C379        C  0.64143403  0.21141261  0.20112472    -0.09500
C380        C  0.64003870  0.25454032  0.20032800     0.29300
F381        F  0.67866518  0.29685529  0.20875746    -0.20100
H382        H  0.59912999  0.28858031  0.19040771     0.17700
H383        H  0.60009610  0.13428617  0.19473163     0.17700
F384        F  0.51904446  0.12570665  0.17655081    -0.20000
C385        C  0.68060195  0.66912307  0.32102004    -0.21500
C386        C  0.69200890  0.64889682  0.29739100    -0.09500
C387        C  0.67810217  0.65423348  0.26915227     0.29300
C388        C  0.65465087  0.68055513  0.26468090    -0.21500
C389        C  0.64324366  0.70065294  0.28827317    -0.09500
C390        C  0.65567399  0.69412949  0.31660105     0.29300
F391        F  0.64545457  0.71360767  0.33985865    -0.20100
H392        H  0.69100926  0.66555913  0.34289376     0.17700
H393        H  0.64529252  0.68521120  0.24273937     0.17700
F394        F  0.68893599  0.63577100  0.24565327    -0.20000
C395        C  0.67628456  0.03080995  0.27463182    -0.21500
C396        C  0.68904408  0.05227172  0.24699583    -0.09500
C397        C  0.67393283  0.02291207  0.22210155     0.29300
C398        C  0.64780243  0.97278467  0.22495077    -0.21500
C399        C  0.63756803  0.95126787  0.25261197    -0.09500
C400        C  0.65132827  0.98066891  0.27749435     0.29300
F401        F  0.64122139  0.96091676  0.30453341    -0.20100
H402        H  0.68760727  0.05288935  0.29407296     0.17700
H403        H  0.63753920  0.95073105  0.20551848     0.17700
F404        F  0.68492203  0.04268849  0.19507396    -0.20000
C405        C  0.64405855  0.67584434  0.06189791    -0.21500
C406        C  0.64123102  0.69188722  0.03383365    -0.09500
C407        C  0.66327368  0.68187821  0.01046041     0.29300
C408        C  0.68818083  0.65695209  0.01531839    -0.21500
C409        C  0.69271089  0.64300980  0.04358273    -0.09500
C410        C  0.67012895  0.65225006  0.06683662     0.29300
F411        F  0.67331354  0.63847196  0.09429674    -0.20100
H412        H  0.62753977  0.68315611  0.08029955     0.17700
H413        H  0.70554465  0.65013359  0.99715043     0.17700
F414        F  0.66107680  0.69641272  0.98304576    -0.20000
C415        C  0.62509657  0.97670871  0.01312308    -0.21500
C416        C  0.64696749  0.94991157  0.00502414    -0.09500
C417        C  0.69243519  0.97320438  0.99167824     0.29300
C418        C  0.64398577  0.02320718  0.48942577    -0.21500
C419        C  0.69335185  0.05091276  0.49539724    -0.09500
C420        C  0.71748798  0.02871774  0.50759948     0.29300
F421        F  0.76485404  0.05524956  0.51468207    -0.20100
H422        H  0.58967434  0.95894712  0.02309106     0.17700
H423        H  0.62472125  0.04011565  0.48059915     0.17700
F424        F  0.71361944  0.94772691  0.98284804    -0.20000
C425        C  0.58764185  0.83776201  0.40857166    -0.21500
C426        C  0.61439867  0.82096451  0.42363735    -0.09500
C427        C  0.64529371  0.80975756  0.40807921     0.29300
C428        C  0.64566403  0.81121013  0.37747799    -0.21500
C429        C  0.61504160  0.82355028  0.36247926    -0.09500
C430        C  0.58780318  0.83902546  0.37835463     0.29300
F431        F  0.55861874  0.85212864  0.36457845    -0.20100
H432        H  0.56415447  0.84730150  0.42031136     0.17700
H433        H  0.66671946  0.79888421  0.36556393     0.17700
F434        F  0.67138731  0.79327822  0.42219379    -0.20000
C435        C  0.62507239  0.77270214  0.12884224    -0.21500
C436        C  0.63003911  0.81225199  0.11284270    -0.09500
C437        C  0.63815447  0.85396567  0.12767424     0.29300
C438        C  0.63836166  0.85477889  0.15822360    -0.21500
C439        C  0.62937159  0.81363049  0.17416552    -0.09500
C440        C  0.62421115  0.77311430  0.15926663     0.29300
F441        F  0.61404366  0.73244477  0.17408323    -0.20100
H442        H  0.61749121  0.73986636  0.11776076     0.17700
H443        H  0.64100038  0.88577192  0.16934102     0.17700
F444        F  0.64128452  0.89199132  0.11273749    -0.20000
C445        C  0.97057310  0.35270612  0.45778762    -0.21500
C446        C  0.94720683  0.30436784  0.46706712    -0.09500
C447        C  0.97389850  0.28048240  0.46913849     0.29300
C448        C  0.02276712  0.30443087  0.46186820    -0.21500
C449        C  0.04615290  0.35278626  0.45308345    -0.09500
C450        C  0.01993926  0.37706076  0.45127643     0.29300
F451        F  0.04181452  0.42378291  0.44255948    -0.20100
H452        H  0.95056672  0.37158041  0.45560657     0.17700
H453        H  0.04270436  0.28541090  0.46361637     0.17700
F454        F  0.95241788  0.23343359  0.47712733    -0.20000
C455        C  0.31945600  0.30455274  0.39079201    -0.21500
C456        C  0.34797678  0.30232451  0.41316619    -0.09500
C457        C  0.35191690  0.32646710  0.43963123     0.29300
C458        C  0.32669151  0.35118543  0.44365030    -0.21500
C459        C  0.29840977  0.35324729  0.42119255    -0.09500
C460        C  0.29522086  0.33016995  0.39463187     0.29300
F461        F  0.26709085  0.33086274  0.37280111    -0.20100
H462        H  0.31572237  0.28622570  0.37029181     0.17700
H463        H  0.32935222  0.36889222  0.46424667     0.17700
F464        F  0.37881542  0.32499233  0.46196225    -0.20000
C465        C  0.39280137  0.65279436  0.47366550    -0.21500
C466        C  0.43195411  0.64948071  0.48463942    -0.09500
C467        C  0.42901147  0.60403631  0.48518118     0.29300
C468        C  0.38732250  0.56297548  0.47525417    -0.21500
C469        C  0.34777955  0.56650981  0.46532270    -0.09500
C470        C  0.35112818  0.61189007  0.46431093     0.29300
F471        F  0.31431953  0.61690381  0.45371548    -0.20100
H472        H  0.39386523  0.68710523  0.47286774     0.17700
H473        H  0.38549473  0.52829427  0.47590360     0.17700
F474        F  0.46609404  0.59914720  0.49537357    -0.20000
C475        C  0.02584377  0.34103423  0.23411727    -0.21500
C476        C  0.04539769  0.35730711  0.20629034    -0.09500
C477        C  0.01443193  0.34911088  0.18274376     0.29300
C478        C  0.96450757  0.32441235  0.18701062    -0.21500
C479        C  0.94475671  0.30628844  0.21463526    -0.09500
C480        C  0.97596372  0.31506185  0.23825823     0.29300
F481        F  0.95836182  0.29808413  0.26525499    -0.20100
H482        H  0.04927177  0.34674882  0.25248129     0.17700
H483        H  0.94123445  0.31784702  0.16844906     0.17700
F484        F  0.03246538  0.36487153  0.15567294    -0.20000
C485        C  0.33171918  0.31728224  0.13900125    -0.21500
C486        C  0.34517563  0.29995098  0.16312427    -0.09500
C487        C  0.33298945  0.30764149  0.19127283     0.29300
C488        C  0.30718640  0.33178907  0.19509580    -0.21500
C489        C  0.29435635  0.34978993  0.17102458    -0.09500
C490        C  0.30709149  0.34267608  0.14288127     0.29300
F491        F  0.29402449  0.35858185  0.11910944    -0.20100
H492        H  0.34048709  0.31129246  0.11715411     0.17700
H493        H  0.29730478  0.33658921  0.21692003     0.17700
F494        F  0.34430905  0.29006713  0.21499610    -0.20000
C495        C  0.14395485  0.34239918  0.29727226    -0.21500
C496        C  0.18755635  0.36567979  0.28159651    -0.09500
C497        C  0.23133946  0.38536062  0.29677225     0.29300
C498        C  0.23165724  0.38684247  0.32702108    -0.21500
C499        C  0.18845040  0.36842786  0.34268838    -0.09500
C500        C  0.14435751  0.34374046  0.32787480     0.29300
F501        F  0.10215260  0.32544965  0.34272073    -0.20100
H502        H  0.10985683  0.32761201  0.28592059     0.17700
H503        H  0.26597687  0.40587624  0.33820399     0.17700
F504        F  0.27399182  0.40774721  0.28222143    -0.20000
C505        C  0.15188490  0.35376366  0.07728430    -0.21500
C506        C  0.19343644  0.38593975  0.09279962    -0.09500
C507        C  0.23635708  0.41515114  0.07737251     0.29300
C508        C  0.23679037  0.41544917  0.04711006    -0.21500
C509        C  0.19467789  0.38633448  0.03134711    -0.09500
C510        C  0.15244084  0.35391082  0.04657550     0.29300
F511        F  0.11096023  0.32561067  0.03191279    -0.20100
H512        H  0.11850450  0.33093801  0.08878530     0.17700
H513        H  0.26979315  0.44038496  0.03588378     0.17700
F514        F  0.27770740  0.44529419  0.09170276    -0.20000
C515        C  0.39182782  0.56078153  0.22684017    -0.21500
C516        C  0.34881889  0.56160681  0.22245814    -0.09500
C517        C  0.34941135  0.60568721  0.22466739     0.29300
C518        C  0.39201644  0.64789145  0.23091065    -0.21500
C519        C  0.43487197  0.64727149  0.23589295    -0.09500
C520        C  0.43452181  0.60321620  0.23405591     0.29300
F521        F  0.47536313  0.60134168  0.23880862    -0.20100
H522        H  0.39220705  0.52720676  0.22495856     0.17700
H523        H  0.39110801  0.68121870  0.23253898     0.17700
F524        F  0.30899543  0.60841109  0.21998648    -0.20000
C525        C  0.32162158  0.98226301  0.34598470    -0.21500
C526        C  0.30181877  0.95055219  0.36951775    -0.09500
C527        C  0.30845560  0.96909833  0.39794943     0.29300
C528        C  0.33305698  0.01886296  0.40256941    -0.21500
C529        C  0.35268839  0.05077165  0.37902218    -0.09500
C530        C  0.34763062  0.03199938  0.35066233     0.29300
F531        F  0.36596053  0.06170603  0.32729780    -0.20100
H532        H  0.31688702  0.96846713  0.32398934     0.17700
H533        H  0.33650646  0.03249462  0.42452751     0.17700
F534        F  0.28917070  0.93910247  0.42113124    -0.20000
C535        C  0.01424935  0.68475975  0.36188931    -0.21500
C536        C  0.04535642  0.69955341  0.33783295    -0.09500
C537        C  0.02577951  0.68786148  0.30958638     0.29300
C538        C  0.97597065  0.66289980  0.30555520    -0.21500
C539        C  0.94490794  0.64793766  0.32954502    -0.09500
C540        C  0.96431289  0.65844398  0.35784886     0.29300
F541        F  0.93499460  0.64507683  0.38151755    -0.20100
H542        H  0.02864274  0.69344923  0.38378126     0.17700
H543        H  0.96158254  0.65521871  0.28363764     0.17700
F544        F  0.05478079  0.70223261  0.28577021    -0.20000
C545        C  0.24941162  0.64415634  0.37735455    -0.21500
C546        C  0.20810456  0.64805571  0.38123476    -0.09500
C547        C  0.16622765  0.60892087  0.39280542     0.29300
C548        C  0.16655165  0.56710523  0.40138432    -0.21500
C549        C  0.20826587  0.56337073  0.39789875    -0.09500
C550        C  0.24954885  0.60223469  0.38522807     0.29300
F551        F  0.29069040  0.60058638  0.38111660    -0.20100
H552        H  0.28176893  0.67372725  0.36792546     0.17700
H553        H  0.13434298  0.53789927  0.41112693     0.17700
F554        F  0.12576133  0.61182323  0.39681462    -0.20000
C555        C  0.34314933  0.74398196  0.30758809    -0.21500
C556        C  0.34485662  0.78756746  0.31426525    -0.09500
C557        C  0.38856356  0.83112475  0.31055290     0.29300
C558        C  0.42981922  0.83066272  0.30068228    -0.21500
C559        C  0.42827909  0.78679416  0.29510970    -0.09500
C560        C  0.38432233  0.74343691  0.29835281     0.29300
F561        F  0.38088035  0.70035489  0.29224503    -0.20100
H562        H  0.31004203  0.70990786  0.31029100     0.17700
H563        H  0.46320388  0.86445877  0.29803184     0.17700
F564        F  0.39135685  0.87399053  0.31632630    -0.20000
C565        C  0.33968537  0.03252941  0.10156794    -0.21500
C566        C  0.35358509  0.05139778  0.12972040    -0.09500
C567        C  0.34339401  0.01990671  0.15327026     0.29300
C568        C  0.31890936  0.97014626  0.14866371    -0.21500
C569        C  0.30307498  0.95105378  0.12064506    -0.09500
C570        C  0.31393737  0.98275465  0.09703930     0.29300
F571        F  0.29958622  0.96573021  0.06967328    -0.20100
H572        H  0.34732990  0.05642516  0.08317290     0.17700
H573        H  0.31088102  0.94645391  0.16722705     0.17700
F574        F  0.35725482  0.03726421  0.18063005    -0.20000
C575        C  0.97920142  0.66948641  0.05717668    -0.21500
C576        C  0.94880515  0.64871740  0.08133625    -0.09500
C577        C  0.96943893  0.65174191  0.10888055     0.29300
C578        C  0.01949192  0.67647134  0.11216380    -0.21500
C579        C  0.04962027  0.69720671  0.08801424    -0.09500
C580        C  0.02923851  0.69304533  0.06038727     0.29300
F581        F  0.05774668  0.71382233  0.03678804    -0.20100
H582        H  0.96416658  0.66772862  0.03578120     0.17700
H583        H  0.03483181  0.67973431  0.13364164     0.17700
F584        F  0.94135644  0.63267890  0.13285031    -0.20000
C585        C  0.24001393  0.83382323  0.46350402    -0.21500
C586        C  0.19765236  0.82082472  0.44796888    -0.09500
C587        C  0.15657694  0.81429502  0.46308327     0.29300
C588        C  0.15663104  0.81497931  0.49375911    -0.21500
C589        C  0.19762614  0.81572656  0.00919019    -0.09500
C590        C  0.24036963  0.83522504  0.49371189     0.29300
F591        F  0.28300421  0.84669847  0.00767345    -0.20100
H592        H  0.27250549  0.84051870  0.45217233     0.17700
H593        H  0.12104814  0.78908812  0.00538260     0.17700
F594        F  0.11556831  0.80322499  0.44846630    -0.20000
C595        C  0.18777530  0.85039088  0.21269945    -0.21500
C596        C  0.17146852  0.80687400  0.19743808    -0.09500
C597        C  0.15017730  0.76331361  0.21295837     0.29300
C598        C  0.15069131  0.76360692  0.24320156    -0.21500
C599        C  0.17191268  0.80716647  0.25859423    -0.09500
C600        C  0.18788505  0.85057809  0.24334775     0.29300
F601        F  0.20787279  0.89311648  0.25783622    -0.20100
H602        H  0.20464033  0.88437026  0.20106559     0.17700
H603        H  0.13788010  0.72976035  0.25464852     0.17700
F604        F  0.13331189  0.72066298  0.19881544    -0.20000
C605        C  0.25410632  0.60992503  0.15801076    -0.21500
C606        C  0.21050561  0.56659000  0.16158062    -0.09500
C607        C  0.16686152  0.56567286  0.15610668     0.29300
C608        C  0.16720789  0.60728008  0.14622617    -0.21500
C609        C  0.21097694  0.65062076  0.14262775    -0.09500
C610        C  0.25449478  0.65164182  0.14906882     0.29300
F611        F  0.29777688  0.69255546  0.14582176    -0.20100
H612        H  0.28811247  0.61166821  0.16237931     0.17700
H613        H  0.13340876  0.60568454  0.14145553     0.17700
F614        F  0.12407207  0.52435172  0.15948248    -0.20000
C615        C  0.39478413  0.83002484  0.07442055    -0.21500
C616        C  0.35117856  0.78627609  0.07721622    -0.09500
C617        C  0.35048631  0.74274206  0.07150148     0.29300
C618        C  0.39224625  0.74319720  0.06267540    -0.21500
C619        C  0.43550672  0.78682474  0.05903365    -0.09500
C620        C  0.43666603  0.83041899  0.06509212     0.29300
F621        F  0.47822720  0.87316420  0.06230037    -0.20100
H622        H  0.39625498  0.86389019  0.07904761     0.17700
H623        H  0.39037432  0.70913117  0.05798922     0.17700
F624        F  0.30963004  0.69945541  0.07486506    -0.20000
O625        O  0.21587769  0.78506094  0.54653072    -0.85500
O626        O  0.26353489  0.74965255  0.57731908    -0.82600
C627        C  0.30427545  0.78606648  0.58260812     0.97900
O628        O  0.30723676  0.81935418  0.59869031    -0.82600
O629        O  0.27870859  0.87272075  0.63247248    -0.85200
C630        C  0.27379467  0.90007283  0.61471225     1.02500
O631        O  0.24131166  0.88263878  0.59564317    -0.78000
O632        O  0.17120504  0.81640129  0.55899211    -0.78200
C633        C  0.19510909  0.80827253  0.53997351     1.02400
O634        O  0.12737525  0.72158528  0.57528317    -0.85500
O635        O  0.17838287  0.69229841  0.61111976    -0.82600
C636        C  0.21127388  0.69513705  0.62752282     0.98000
O637        O  0.24772810  0.73577702  0.63291996    -0.82600
O638        O  0.21229899  0.78633904  0.66167477    -0.85200
C639        C  0.19144042  0.81006963  0.66666804     1.02400
O640        O  0.18476600  0.83314910  0.64648020    -0.78000
O641        O  0.11814723  0.76260076  0.61036192    -0.78200
C642        C  0.10042485  0.72867893  0.59224351     1.02400
Cr643      Cr  0.19702875  0.74057266  0.57940464     1.93700
Cr644      Cr  0.25810085  0.80267849  0.62953517     1.93200
Cr645      Cr  0.18106533  0.82117160  0.60292037     1.39100
O646        O  0.21192674  0.78817272  0.60396833    -1.23300
O647        O  0.21369989  0.78859994  0.79285878    -0.85500
O648        O  0.26317168  0.75000245  0.81998053    -0.82600
C649        C  0.30364048  0.78690826  0.82453941     0.97900
O650        O  0.30662481  0.81989583  0.84070041    -0.82600
O651        O  0.28178096  0.87123534  0.87790479    -0.85200
C652        C  0.27066945  0.89814912  0.86379143     1.02500
O653        O  0.23425207  0.88044534  0.84742328    -0.78000
O654        O  0.16597593  0.81433673  0.80949679    -0.78200
C655        C  0.18762619  0.80709911  0.78849740     1.02400
O656        O  0.12742566  0.72098796  0.82070050    -0.85500
O657        O  0.17966007  0.69122360  0.85406023    -0.82600
C658        C  0.21272190  0.69333840  0.86991643     0.98000
O659        O  0.25014024  0.73360685  0.87517596    -0.82600
O660        O  0.22070582  0.78444832  0.90862131    -0.85200
C661        C  0.19883179  0.80615962  0.91619653     1.02400
O662        O  0.18323884  0.82396549  0.89728991    -0.78000
O663        O  0.11669669  0.75373371  0.85956379    -0.78200
C664        C  0.09968590  0.72343097  0.83919698     1.02400
Cr665      Cr  0.19706680  0.74124950  0.82397887     1.93700
Cr666      Cr  0.26109734  0.80127124  0.87375385     1.93200
Cr667      Cr  0.17747645  0.81576443  0.85327229     1.39100
O668        O  0.21183426  0.78642831  0.85053240    -1.23300
O669        O  0.21583099  0.43830949  0.62974732    -0.85500
O670        O  0.25000837  0.52118249  0.66138715    -0.82600
C671        C  0.21311704  0.52469622  0.66717246     0.97900
O672        O  0.18051945  0.49411760  0.68356630    -0.82600
O673        O  0.12810782  0.41146094  0.71720090    -0.85200
C674        C  0.10073572  0.37923637  0.69941361     1.02500
O675        O  0.11824956  0.36530103  0.67965809    -0.78000
O676        O  0.18552207  0.36250502  0.64253041    -0.78200
C677        C  0.19678144  0.39456084  0.62304383     1.02400
O678        O  0.27951473  0.41361664  0.65800011    -0.85500
O679        O  0.30776668  0.49195447  0.69413664    -0.82600
C680        C  0.30562610  0.52205095  0.71069460     0.98000
O681        O  0.26527183  0.51831188  0.71667077    -0.82600
O682        O  0.21569763  0.43218025  0.74538886    -0.85200
C683        C  0.19188737  0.38763095  0.75040869     1.02400
O684        O  0.16841517  0.35809218  0.73019419    -0.78000
O685        O  0.23920419  0.36321180  0.69321531    -0.78200
C686        C  0.27272541  0.37937318  0.67467945     1.02400
Cr687      Cr  0.25979252  0.46375716  0.66271754     1.93700
Cr688      Cr  0.19824427  0.46162748  0.71377717     1.93200
Cr689      Cr  0.18007235  0.36689099  0.68642911     1.39100
O690        O  0.21251145  0.43058324  0.68753645    -1.23300
O691        O  0.21430960  0.43113244  0.87700596    -0.85500
O692        O  0.24893467  0.51807736  0.90454464    -0.82600
C693        C  0.21198651  0.52188493  0.90892654     0.97900
O694        O  0.17883918  0.49214239  0.92529935    -0.82600
O695        O  0.12742938  0.41445665  0.96208115    -0.85200
C696        C  0.10106167  0.37729323  0.94718905     1.02500
O697        O  0.11918484  0.35959577  0.93036772    -0.78000
O698        O  0.18658809  0.35738881  0.89361118    -0.78200
C699        C  0.19535706  0.38655051  0.87256582     1.02400
O700        O  0.28031212  0.41260596  0.90684772    -0.85500
O701        O  0.30758965  0.49481397  0.94028576    -0.82600
C702        C  0.30430086  0.52550191  0.95582791     0.98000
O703        O  0.26372207  0.52233305  0.96011170    -0.82600
O704        O  0.21463629  0.44082826  0.99276386    -0.85200
C705        C  0.19434096  0.39712526  0.00006649     1.02400
O706        O  0.17334123  0.36407597  0.98122067    -0.78000
O707        O  0.24439434  0.36785134  0.94482932    -0.78200
C708        C  0.27551323  0.38094422  0.92496364     1.02400
Cr709      Cr  0.25931293  0.46177512  0.90921340     1.93700
Cr710      Cr  0.19705723  0.46465792  0.95824526     1.93200
Cr711      Cr  0.18315405  0.36710251  0.93731423     1.39100
O712        O  0.21272343  0.43085445  0.93489837    -1.20900
O713        O  0.55872781  0.78687020  0.96203116    -0.85500
O714        O  0.47771542  0.73432176  0.99501750    -0.82600
C715        C  0.47388564  0.69344679  0.99964108     0.97900
O716        O  0.50355928  0.68989846  0.51305547    -0.82600
O717        O  0.58472597  0.71715941  0.54688363    -0.85200
C718        C  0.61634327  0.72175688  0.52867950     1.02500
O719        O  0.63072545  0.75408521  0.50946686    -0.78000
O720        O  0.63543489  0.82453208  0.97411485    -0.78200
C721        C  0.60257080  0.80826284  0.95494571     1.02400
O722        O  0.58408165  0.87147573  0.99457398    -0.85500
O723        O  0.50566711  0.81818291  0.52880273    -0.82600
C724        C  0.47506919  0.78463684  0.54444153     0.98000
O725        O  0.47801305  0.74712766  0.54843550    -0.82600
O726        O  0.56458709  0.78246367  0.57697846    -0.85200
C727        C  0.60921435  0.80308028  0.58183616     1.02400
O728        O  0.63891484  0.80986743  0.56142929    -0.78000
O729        O  0.63737518  0.87879657  0.52553647    -0.78200
C730        C  0.61986698  0.89753699  0.50894780     1.02400
Cr731      Cr  0.53465553  0.80156562  0.99755536     1.93700
Cr732      Cr  0.53523888  0.73768570  0.54444131     1.93200
Cr733      Cr  0.63084446  0.81495242  0.51773986     1.39100
O734        O  0.56700432  0.78487394  0.51924874    -1.23300
O735        O  0.56756863  0.78453154  0.70935258    -0.85500
O736        O  0.48236705  0.73342773  0.73857509    -0.82600
C737        C  0.47912284  0.69341468  0.74479804     0.97900
O738        O  0.50913608  0.69167289  0.76171132    -0.82600
O739        O  0.58830610  0.72254881  0.79810136    -0.85200
C740        C  0.62349016  0.72999444  0.78198864     1.02500
O741        O  0.63872591  0.76269278  0.76294977    -0.78000
O742        O  0.64164974  0.83147011  0.72474378    -0.78200
C743        C  0.61191609  0.80998132  0.70421697     1.02400
O744        O  0.58617268  0.87102883  0.73775523    -0.85500
O745        O  0.50500158  0.81786662  0.77150172    -0.82600
C746        C  0.47452372  0.78502702  0.78771508     0.98000
O747        O  0.47887199  0.74880284  0.79368846    -0.82600
O748        O  0.56182284  0.78665312  0.82507958    -0.85200
C749        C  0.60576433  0.80905434  0.83167750     1.02400
O750        O  0.63778952  0.81720001  0.81264531    -0.78000
O751        O  0.63305524  0.88164296  0.77491294    -0.78200
C752        C  0.61738409  0.89856476  0.75589355     1.02400
Cr753      Cr  0.53775467  0.80077142  0.74126428     1.93700
Cr754      Cr  0.53713256  0.74078819  0.79274691     1.93200
Cr755      Cr  0.63321220  0.82077566  0.76863444     1.39100
O756        O  0.56958010  0.78733323  0.76742112    -1.23300
O757        O  0.77807396  0.21294324  0.67292469    -0.85500
O758        O  0.73079095  0.25106210  0.70181099    -0.82600
C759        C  0.69001647  0.21494433  0.70768837     0.97900
O760        O  0.68719961  0.18275376  0.72468655    -0.82600
O761        O  0.71538242  0.13174147  0.76052806    -0.85200
C762        C  0.72025728  0.10376410  0.74332700     1.02500
O763        O  0.75364028  0.12005093  0.72472610    -0.78000
O764        O  0.82387328  0.18369669  0.68697940    -0.78200
C765        C  0.79994634  0.19045727  0.66734818     1.02400
O766        O  0.86712704  0.27856242  0.70014884    -0.85500
O767        O  0.81673272  0.31038060  0.73447815    -0.82600
C768        C  0.78411681  0.30891165  0.75059684     0.98000
O769        O  0.74739945  0.26886559  0.75690748    -0.82600
O770        O  0.78174043  0.21956788  0.78801279    -0.85200
C771        C  0.79926213  0.19343721  0.79476394     1.02400
O772        O  0.80980665  0.17221862  0.77510534    -0.78000
O773        O  0.87726227  0.24081939  0.73678452    -0.78200
C774        C  0.89474208  0.27289980  0.71733617     1.02400
Cr775      Cr  0.79743022  0.25996456  0.70430719     1.93700
Cr776      Cr  0.73645417  0.20160439  0.75565183     1.93200
Cr777      Cr  0.81405668  0.18174249  0.73094833     1.39100
O778        O  0.78290816  0.21447761  0.73041009    -1.23300
O779        O  0.77282120  0.21230137  0.53982330    -0.85500
O780        O  0.74216409  0.26659282  0.51074475    -0.82600
C781        C  0.78029699  0.30703598  0.50794695     0.97900
O782        O  0.81990802  0.31178047  0.99048949    -0.82600
O783        O  0.87031723  0.28376960  0.95380668    -0.85200
C784        C  0.89734254  0.27526120  0.96969552     1.02500
O785        O  0.87960296  0.24166675  0.98809397    -0.78000
O786        O  0.80693085  0.17114533  0.52458848    -0.78200
C787        C  0.79361106  0.18858621  0.54507652     1.02400
O788        O  0.71037587  0.12939560  0.50732337    -0.85500
O789        O  0.69063235  0.18576864  0.97610684    -0.82600
C790        C  0.69371603  0.21989351  0.96092168     0.98000
O791        O  0.73446596  0.25685712  0.95642914    -0.82600
O792        O  0.78221834  0.22089840  0.92495640    -0.85200
C793        C  0.80318777  0.19779656  0.91828581     1.02400
O794        O  0.82627493  0.18866727  0.93733748    -0.78000
O795        O  0.75718355  0.12180578  0.97426339    -0.78200
C796        C  0.72336277  0.10337316  0.99253631     1.02400
Cr797      Cr  0.73185478  0.19972254  0.50574827     1.93700
Cr798      Cr  0.80079424  0.26468253  0.95828758     1.93200
Cr799      Cr  0.81667025  0.18353979  0.98132221     1.39100
O800        O  0.78545523  0.21626641  0.98251719    -1.23300
O801        O  0.78684217  0.56555080  0.50738633    -0.85500
O802        O  0.74747518  0.48335014  0.53971588    -0.82600
C803        C  0.78291706  0.47887485  0.54726347     0.97900
O804        O  0.81498344  0.50977605  0.56371386    -0.82600
O805        O  0.86585690  0.59381666  0.59645857    -0.85200
C806        C  0.89403673  0.62608008  0.57885833     1.02500
O807        O  0.87732895  0.64054336  0.55894230    -0.78000
O808        O  0.81345514  0.64121989  0.51880289    -0.78200
C809        C  0.80736167  0.60928154  0.50023908     1.02400
O810        O  0.71922493  0.59008787  0.53058936    -0.85500
O811        O  0.68680521  0.51154751  0.56840438    -0.82600
C812        C  0.68844635  0.48280237  0.58655649     0.98000
O813        O  0.72862000  0.48786512  0.59435804    -0.82600
O814        O  0.77625145  0.57395289  0.62230028    -0.85200
C815        C  0.79930295  0.61853357  0.62703063     1.02400
O816        O  0.82294779  0.64789297  0.60674837    -0.78000
O817        O  0.75432456  0.64013364  0.56669498    -0.78200
C818        C  0.72293889  0.62345638  0.54691284     1.02400
Cr819      Cr  0.73845043  0.54041156  0.53849502     1.93700
Cr820      Cr  0.79575186  0.54385698  0.59215147     1.93200
Cr821      Cr  0.81467867  0.63782576  0.56294580     1.39100
O822        O  0.78306325  0.57415356  0.56458063    -1.23300
O823        O  0.78053227  0.56438287  0.86998659    -0.85500
O824        O  0.73010469  0.48123591  0.83863269    -0.82600
C825        C  0.68967362  0.47799350  0.83422910     0.97900
O826        O  0.68691950  0.50886685  0.81867728    -0.82600
O827        O  0.71528264  0.59135850  0.78619022    -0.85200
C828        C  0.72443981  0.62605330  0.80304056     1.02500
O829        O  0.75863273  0.64124158  0.82101104    -0.78000
O830        O  0.82796098  0.63982406  0.85710632    -0.78200
C831        C  0.80715406  0.60794569  0.87676092     1.02400
O832        O  0.86664189  0.58603992  0.84050410    -0.85500
O833        O  0.81411483  0.50858148  0.80413672    -0.82600
C834        C  0.78136508  0.47955915  0.78739061     0.98000
O835        O  0.74485559  0.48406995  0.78243636    -0.82600
O836        O  0.77819230  0.57036734  0.75386354    -0.85200
C837        C  0.79856212  0.61495298  0.74898963     1.02400
O838        O  0.81150885  0.64487411  0.76982695    -0.78000
O839        O  0.87750393  0.63614976  0.80513980    -0.78200
C840        C  0.89441766  0.61952685  0.82363276     1.02400
Cr841      Cr  0.79678186  0.53775369  0.83638684     1.93700
Cr842      Cr  0.73496211  0.54107696  0.78726112     1.93200
Cr843      Cr  0.81641645  0.63566646  0.81321134     1.39100
O844        O  0.78267065  0.57177810  0.81224395    -1.23300
O845        O  0.43028404  0.22339320  0.58883177    -0.85500
O846        O  0.51515494  0.27044395  0.61837316    -0.82600
C847        C  0.51801249  0.31030553  0.62457038     0.97900
O848        O  0.48775752  0.31151515  0.64155196    -0.82600
O849        O  0.40753911  0.28008213  0.67688820    -0.85200
C850        C  0.37401039  0.27447756  0.65997644     1.02500
O851        O  0.35827190  0.24187761  0.64092845    -0.78000
O852        O  0.35550505  0.17442175  0.60240195    -0.78200
C853        C  0.38602035  0.19992174  0.58300587     1.02400
O854        O  0.40875414  0.13370474  0.61423619    -0.85500
O855        O  0.48971381  0.18326265  0.64948802    -0.82600
C856        C  0.51934586  0.21483437  0.66669465     0.98000
O857        O  0.51548209  0.25130587  0.67301487    -0.82600
O858        O  0.43138151  0.21397532  0.70340146    -0.85200
C859        C  0.38762897  0.19536075  0.71005260     1.02400
O860        O  0.35603615  0.18519152  0.69044488    -0.78000
O861        O  0.36135042  0.12104340  0.65164816    -0.78200
C862        C  0.37653192  0.10512170  0.63165276     1.02400
Cr863      Cr  0.45847251  0.20333872  0.61964132     1.93700
Cr864      Cr  0.45810302  0.26094706  0.67182653     1.93200
Cr865      Cr  0.36232092  0.18274279  0.64637619     1.39100
O866        O  0.42609657  0.21555353  0.64599991    -1.23300
O867        O  0.43456017  0.21662393  0.83957237    -0.85500
O868        O  0.51713811  0.26786194  0.87059710    -0.82600
C869        C  0.51977551  0.30807533  0.87548580     0.97900
O870        O  0.48923665  0.31038926  0.89168417    -0.82600
O871        O  0.40869532  0.28096928  0.92658521    -0.85200
C872        C  0.37585184  0.27539795  0.90924051     1.02500
O873        O  0.36166032  0.24342585  0.88983701    -0.78000
O874        O  0.35862084  0.17328146  0.85285076    -0.78200
C875        C  0.39043051  0.19495726  0.83334234     1.02400
O876        O  0.41225675  0.12991888  0.86984128    -0.85500
O877        O  0.49138824  0.18361598  0.90527079    -0.82600
C878        C  0.52136262  0.21705550  0.92130276     0.98000
O879        O  0.51704981  0.25364000  0.92595040    -0.82600
O880        O  0.43106580  0.21634871  0.95512741    -0.85200
C881        C  0.38688022  0.19769360  0.96084349     1.02400
O882        O  0.35616930  0.18714329  0.94057130    -0.78000
O883        O  0.35899405  0.12034787  0.90316623    -0.78200
C884        C  0.37604316  0.10280148  0.88538606     1.02400
Cr885      Cr  0.46115768  0.20033080  0.87319829     1.93700
Cr886      Cr  0.45900972  0.26173289  0.92284682     1.93200
Cr887      Cr  0.36372263  0.18337481  0.89668457     1.39100
O888        O  0.42764145  0.21480851  0.89753276    -1.23300
C889        C  0.34892389  0.15095904  0.75659471    -0.21500
C890        C  0.37655216  0.19416397  0.74122529    -0.09500
C891        C  0.40170092  0.23763955  0.75666554     0.29300
C892        C  0.40224667  0.23767606  0.78690442    -0.21500
C893        C  0.37766840  0.19444668  0.80249164    -0.09500
C894        C  0.34946815  0.15104041  0.78725163     0.29300
F895        F  0.32658374  0.10850016  0.80180232    -0.20100
H896        H  0.33002201  0.11709473  0.74500764     0.17700
H897        H  0.42444179  0.27135501  0.79819974     0.17700
F898        F  0.42883196  0.27994142  0.74234474    -0.20000
C899        C  0.39907388  0.24334583  0.53685573    -0.21500
C900        C  0.37234761  0.20041980  0.55250626    -0.09500
C901        C  0.34257486  0.15742135  0.53731139     0.29300
C902        C  0.34418162  0.15681446  0.50673288    -0.21500
C903        C  0.37397008  0.19637764  0.99168929    -0.09500
C904        C  0.40088444  0.24273894  0.50668360     0.29300
F905        F  0.42593711  0.28219347  0.99337043    -0.20100
H906        H  0.42185349  0.27689135  0.54813655     0.17700
H907        H  0.32745147  0.11926948  0.99500957     0.17700
F908        F  0.31612519  0.11539058  0.55193634    -0.20000
C909        C  0.60221379  0.43576327  0.84848206    -0.21500
C910        C  0.64581750  0.43553973  0.84546206    -0.09500
C911        C  0.64698748  0.39328962  0.85227333     0.29300
C912        C  0.60551752  0.35228599  0.86156709    -0.21500
C913        C  0.56201125  0.35230006  0.86469750    -0.09500
C914        C  0.56058482  0.39455218  0.85841639     0.29300
F915        F  0.51897996  0.39569717  0.86126546    -0.20100
H916        H  0.60045347  0.46779745  0.84329769     0.17700
H917        H  0.60768187  0.32042539  0.86669715     0.17700
F918        F  0.68792578  0.39088602  0.84928150    -0.20000
C919        C  0.80991927  0.65185667  0.92310744    -0.21500
C920        C  0.81845489  0.61876128  0.90793146    -0.09500
C921        C  0.83272977  0.59026218  0.92351443     0.29300
C922        C  0.83377486  0.59122167  0.95375613    -0.21500
C923        C  0.82053624  0.62048736  0.96929332    -0.09500
C924        C  0.81099666  0.65282312  0.95378886     0.29300
F925        F  0.79841287  0.68191129  0.96815151    -0.20100
H926        H  0.79915856  0.67429995  0.91142108     0.17700
H927        H  0.84190910  0.56652291  0.96514674     0.17700
F928        F  0.84290396  0.55911118  0.90943150    -0.20000
C929        C  0.84464064  0.65484585  0.70328609    -0.21500
C930        C  0.80084482  0.63026304  0.71851568    -0.09500
C931        C  0.75731392  0.61232067  0.70318070     0.29300
C932        C  0.75739078  0.61415041  0.67288473    -0.21500
C933        C  0.80084002  0.63419559  0.65733604    -0.09500
C934        C  0.84469512  0.65702998  0.67270398     0.29300
F935        F  0.88724996  0.67625758  0.65815581    -0.20100
H936        H  0.87847979  0.66872529  0.71479043     0.17700
H937        H  0.72329003  0.59621850  0.66144412     0.17700
F938        F  0.71444452  0.58933012  0.71746563    -0.20000
C939        C  0.60015677  0.43932351  0.59933791    -0.21500
C940        C  0.64405831  0.43968292  0.59657730    -0.09500
C941        C  0.64539052  0.39726682  0.60258418     0.29300
C942        C  0.60389737  0.35562810  0.61112928    -0.21500
C943        C  0.56018004  0.35516035  0.61435741    -0.09500
C944        C  0.55846189  0.39743626  0.60862272     0.29300
F945        F  0.51652701  0.39794615  0.61140494    -0.20100
H946        H  0.59831798  0.47146570  0.59463125     0.17700
H947        H  0.60622047  0.32367422  0.61568219     0.17700
F948        F  0.68661914  0.39542076  0.59947696    -0.20000
C949        C  0.74643237  0.35081519  0.02669747    -0.21500
C950        C  0.78228066  0.35043748  0.52015687    -0.09500
C951        C  0.82616320  0.39189242  0.52725669     0.29300
C952        C  0.82655752  0.43369154  0.53670654    -0.21500
C953        C  0.78341084  0.43493263  0.53831207    -0.09500
C954        C  0.73962581  0.39315711  0.53129329     0.29300
F955        F  0.70282180  0.38831361  0.04214334    -0.20100
H956        H  0.71227970  0.31773870  0.02435274     0.17700
H957        H  0.86055888  0.46532317  0.54209231     0.17700
F958        F  0.86846095  0.39196606  0.52508288    -0.20000
C959        C  0.60776305  0.17456552  0.94462135    -0.21500
C960        C  0.64960538  0.21869051  0.95043279    -0.09500
C961        C  0.64829262  0.26172314  0.94747070     0.29300
C962        C  0.60600056  0.26044554  0.93877535    -0.21500
C963        C  0.56433236  0.21646256  0.93239912    -0.09500
C964        C  0.56555992  0.17338330  0.93533276     0.29300
F965        F  0.52596931  0.13019672  0.92953708    -0.20100
H966        H  0.60791089  0.14102031  0.94699195     0.17700
H967        H  0.60620788  0.29420769  0.93650453     0.17700
F968        F  0.68749141  0.30506094  0.95367828    -0.20000
C969        C  0.75836153  0.17035535  0.87231921    -0.21500
C970        C  0.80118010  0.18385849  0.88742527    -0.09500
C971        C  0.84250285  0.19228171  0.87163285     0.29300
C972        C  0.84175348  0.19198258  0.84091945    -0.21500
C973        C  0.79977552  0.18314489  0.82606500    -0.09500
C974        C  0.75755805  0.16998367  0.84209793     0.29300
F975        F  0.71593964  0.15972244  0.82842192    -0.20100
H976        H  0.72597575  0.16308981  0.88399465     0.17700
H977        H  0.87455621  0.20196378  0.82892124     0.17700
F978        F  0.88443991  0.20509907  0.88567602    -0.20000
C979        C  0.75351560  0.15676059  0.59193357    -0.21500
C980        C  0.79640511  0.17722846  0.57577999    -0.09500
C981        C  0.84036268  0.19262782  0.59019827     0.29300
C982        C  0.84142087  0.19176639  0.62081458    -0.21500
C983        C  0.79861200  0.17542159  0.63693051    -0.09500
C984        C  0.75446275  0.15565247  0.62215765     0.29300
F985        F  0.71250342  0.13934585  0.63710741    -0.20100
H986        H  0.71926596  0.14439983  0.58111390     0.17700
H987        H  0.87585708  0.20791194  0.63185342     0.17700
F988        F  0.88231326  0.21271861  0.57498111    -0.20000
C989        C  0.74112783  0.35274826  0.76269621    -0.21500
C990        C  0.78512878  0.35353670  0.75962613    -0.09500
C991        C  0.82841399  0.39688850  0.76430414     0.29300
C992        C  0.82725934  0.43829824  0.77287359    -0.21500
C993        C  0.78305276  0.43730512  0.77602141    -0.09500
C994        C  0.73993893  0.39410172  0.77050817     0.29300
F995        F  0.69637000  0.39110059  0.77375858    -0.20100
H996        H  0.70728684  0.31992676  0.75877763     0.17700
H997        H  0.86088749  0.47111009  0.77715654     0.17700
F998        F  0.87155173  0.39888023  0.76139322    -0.20000
C999        C  0.60504040  0.25638058  0.68126814    -0.21500
C1000       C  0.56182001  0.21282118  0.67736074    -0.09500
C1001       C  0.56075447  0.16917186  0.68324541     0.29300
C1002       C  0.60246401  0.16961781  0.69318277    -0.21500
C1003       C  0.64589325  0.21346212  0.69664539    -0.09500
C1004       C  0.64660219  0.25686788  0.69056607     0.29300
F1005       F  0.68718782  0.30016027  0.69439415    -0.20100
H1006       H  0.60690018  0.29047323  0.67674482     0.17700
H1007       H  0.60093652  0.13577356  0.69798508     0.17700
F1008       F  0.51933672  0.12640608  0.68012005    -0.20000
C1009       C  0.71901334  0.69294213  0.78062533    -0.21500
C1010       C  0.69859450  0.65255083  0.79888256    -0.09500
C1011       C  0.65298193  0.63666989  0.81108918     0.29300
C1012       C  0.62835342  0.66163367  0.80528160    -0.21500
C1013       C  0.64867994  0.70232653  0.78687661    -0.09500
C1014       C  0.69448090  0.71770563  0.77458798     0.29300
F1015       F  0.71616906  0.75718331  0.75717073    -0.20100
H1016       H  0.75405702  0.70512870  0.77081732     0.17700
H1017       H  0.59333493  0.64907087  0.81517189     0.17700
F1018       F  0.63246304  0.59724580  0.82858773    -0.20000
C1019       C  0.68152990  0.03098516  0.77445778    -0.21500
C1020       C  0.68905852  0.05159004  0.74664395    -0.09500
C1021       C  0.66904857  0.02182328  0.72228219     0.29300
C1022       C  0.64328178  0.97183638  0.72568871    -0.21500
C1023       C  0.63832908  0.95102980  0.75331630    -0.09500
C1024       C  0.65685880  0.98100532  0.77781561     0.29300
F1025       F  0.65176938  0.96200741  0.80487642    -0.20100
H1026       H  0.69668691  0.05365296  0.79348166     0.17700
H1027       H  0.62912869  0.94933009  0.70652657     0.17700
F1028       F  0.67480944  0.04111774  0.69526470    -0.20000
C1029       C  0.64581303  0.67966373  0.56055180    -0.21500
C1030       C  0.63973200  0.69244312  0.53227568    -0.09500
C1031       C  0.65861251  0.67948231  0.50853019     0.29300
C1032       C  0.68403549  0.65502701  0.51330676    -0.21500
C1033       C  0.69212055  0.64463839  0.54178444    -0.09500
C1034       C  0.67228839  0.65657081  0.56533343     0.29300
F1035       F  0.67860565  0.64590607  0.59298127    -0.20100
H1036       H  0.63161618  0.68931452  0.57919652     0.17700
H1037       H  0.69893153  0.64576722  0.49485319     0.17700
F1038       F  0.65262542  0.69052016  0.48089315    -0.20000
C1039       C  0.69285128  0.97918227  0.51306828    -0.21500
C1040       C  0.64379671  0.95070474  0.50606494    -0.09500
C1041       C  0.61938911  0.97331923  0.49432248     0.29300
C1042       C  0.71603656  0.02279233  0.98679668    -0.21500
C1043       C  0.69515978  0.05029480  0.99561926    -0.09500
C1044       C  0.64929030  0.02676624  0.00890624     0.29300
F1045       F  0.62775203  0.05194666  0.01762465    -0.20100
H1046       H  0.71257717  0.96290759  0.52208493     0.17700
H1047       H  0.75134703  0.03987221  0.97670227     0.17700
F1048       F  0.57182168  0.94734472  0.48764784    -0.20000
C1049       C  0.59217773  0.83955218  0.90820813    -0.21500
C1050       C  0.61412495  0.81798147  0.92374371    -0.09500
C1051       C  0.64163006  0.80193006  0.90862105     0.29300
C1052       C  0.64338791  0.80374409  0.87804259    -0.21500
C1053       C  0.61781346  0.82162246  0.86252836    -0.09500
C1054       C  0.59406067  0.84155074  0.87792182     0.29300
F1055       F  0.56988458  0.85999606  0.86353089    -0.20100
H1056       H  0.57140874  0.85280310  0.91958654     0.17700
H1057       H  0.66121750  0.78750249  0.86648661     0.17700
F1058       F  0.66289167  0.78061705  0.92311883    -0.20000
C1059       C  0.64436290  0.79263019  0.62793606    -0.21500
C1060       C  0.62493438  0.81658564  0.61216393    -0.09500
C1061       C  0.60971718  0.84476246  0.62717107     0.29300
C1062       C  0.61070374  0.84627746  0.65749409    -0.21500
C1063       C  0.62638542  0.81935767  0.67343768    -0.09500
C1064       C  0.64479595  0.79371049  0.65855290     0.29300
F1065       F  0.65884874  0.76631541  0.67351582    -0.20100
H1066       H  0.65509334  0.76975560  0.61672747     0.17700
H1067       H  0.59563816  0.86553196  0.66863791     0.17700
F1068       F  0.59009241  0.86758340  0.61250914    -0.20000
C1069       C  0.97341403  0.35161324  0.95831567    -0.21500
C1070       C  0.94972904  0.30215385  0.96480377    -0.09500
C1071       C  0.97587505  0.27763917  0.96441862     0.29300
C1072       C  0.02482079  0.30224094  0.95748460    -0.21500
C1073       C  0.04872253  0.35181128  0.95166312    -0.09500
C1074       C  0.02290103  0.37659123  0.95233621     0.29300
F1075       F  0.04537142  0.42459361  0.94673166    -0.20100
H1076       H  0.95365788  0.37091158  0.95819814     0.17700
H1077       H  0.04442735  0.28277737  0.95736633     0.17700
F1078       F  0.95379737  0.22959359  0.96986445    -0.20000
C1079       C  0.33013552  0.31322842  0.88944429    -0.21500
C1080       C  0.35218689  0.30446049  0.91312627    -0.09500
C1081       C  0.34950963  0.32189459  0.94087323     0.29300
C1082       C  0.32472249  0.34707721  0.94470785    -0.21500
C1083       C  0.30322889  0.35617523  0.92093878    -0.09500
C1084       C  0.30620553  0.33922372  0.89321415     0.29300
F1085       F  0.28399455  0.34584054  0.87002543    -0.20100
H1086       H  0.33128391  0.29976231  0.86796695     0.17700
H1087       H  0.32225696  0.35948440  0.96627618     0.17700
F1088       F  0.36913064  0.31299734  0.96453030    -0.20000
C1089       C  0.39355027  0.65385964  0.97571754    -0.21500
C1090       C  0.43150750  0.64968916  0.98793748    -0.09500
C1091       C  0.42702636  0.60364702  0.98973774     0.29300
C1092       C  0.38579461  0.56314609  0.97891303    -0.21500
C1093       C  0.34795449  0.56771886  0.96706238    -0.09500
C1094       C  0.35209396  0.61342339  0.96566460     0.29300
F1095       F  0.31643389  0.61924173  0.95395317    -0.20100
H1096       H  0.39552815  0.68856339  0.97423388     0.17700
H1097       H  0.38296945  0.52805529  0.98029679     0.17700
F1098       F  0.46215954  0.59759149  0.00198866    -0.20000
C1099       C  0.02938496  0.33779151  0.73173799    -0.21500
C1100       C  0.04818744  0.35454880  0.70382457    -0.09500
C1101       C  0.01647240  0.34530212  0.68054705     0.29300
C1102       C  0.96660334  0.31992156  0.68532118    -0.21500
C1103       C  0.94761235  0.30210535  0.71318174    -0.09500
C1104       C  0.97960482  0.31110367  0.73636900     0.29300
F1105       F  0.96287789  0.29430667  0.76351258    -0.20100
H1106       H  0.05341205  0.34418784  0.74987244     0.17700
H1107       H  0.94275785  0.31309369  0.66702627     0.17700
F1108       F  0.03370510  0.36122288  0.65334819    -0.20000
C1109       C  0.33486971  0.31843071  0.63940594    -0.21500
C1110       C  0.35121752  0.30432760  0.66373362    -0.09500
C1111       C  0.34327191  0.31680610  0.69174965     0.29300
C1112       C  0.31818787  0.34181472  0.69525090    -0.21500
C1113       C  0.30184293  0.35585609  0.67091529    -0.09500
C1114       C  0.31092482  0.34454086  0.64288359     0.29300
F1115       F  0.29444010  0.35653339  0.61893644    -0.20100
H1116       H  0.34042258  0.30893570  0.61765711     0.17700
H1117       H  0.31120730  0.34997976  0.71701883     0.17700
F1118       F  0.35759326  0.30273163  0.71578193    -0.20000
C1119       C  0.14647527  0.35108180  0.79643955    -0.21500
C1120       C  0.19006458  0.37191106  0.78073305    -0.09500
C1121       C  0.23353572  0.38862709  0.79584271     0.29300
C1122       C  0.23380027  0.38803208  0.82615260    -0.21500
C1123       C  0.19088646  0.37117512  0.84201704    -0.09500
C1124       C  0.14683571  0.35103296  0.82705698     0.29300
F1125       F  0.10501395  0.33599245  0.84187405    -0.20100
H1126       H  0.11270916  0.33908777  0.78514251     0.17700
H1127       H  0.26815947  0.40471631  0.83731366     0.17700
F1128       F  0.27619273  0.40960000  0.78129431    -0.20000
C1129       C  0.15037648  0.35691243  0.57736800    -0.21500
C1130       C  0.19446342  0.38324436  0.59193487    -0.09500
C1131       C  0.23749529  0.40642210  0.57579463     0.29300
C1132       C  0.23624997  0.40641730  0.54555666    -0.21500
C1133       C  0.19218863  0.38324358  0.53083340    -0.09500
C1134       C  0.14914928  0.35688604  0.54679600     0.29300
F1135       F  0.10592183  0.33534551  0.53303291    -0.20100
H1136       H  0.11691328  0.33949974  0.58956113     0.17700
H1137       H  0.26967435  0.42702064  0.53358697     0.17700
F1138       F  0.28068044  0.43191852  0.58938503    -0.20000
C1139       C  0.39340455  0.56375622  0.72332910    -0.21500
C1140       C  0.35025380  0.56482945  0.72033902    -0.09500
C1141       C  0.35067577  0.60849555  0.72447922     0.29300
C1142       C  0.39323171  0.65000649  0.73161906    -0.21500
C1143       C  0.43620228  0.64901483  0.73517427    -0.09500
C1144       C  0.43616282  0.60552640  0.73106548     0.29300
F1145       F  0.47737557  0.60367701  0.73395835    -0.20100
H1146       H  0.39391814  0.53055268  0.71977820     0.17700
H1147       H  0.39227542  0.68303501  0.73491309     0.17700
F1148       F  0.31028045  0.61162674  0.72071910    -0.20000
C1149       C  0.34894833  0.97474806  0.87170747    -0.21500
C1150       C  0.29860565  0.95079094  0.86825448    -0.09500
C1151       C  0.27443676  0.97705129  0.87111346     0.29300
C1152       C  0.30005568  0.02612246  0.87760418    -0.21500
C1153       C  0.35033074  0.05030973  0.88059768    -0.09500
C1154       C  0.37485849  0.02444911  0.87726977     0.29300
F1155       F  0.42351496  0.04696604  0.88004547    -0.20100
H1156       H  0.36816357  0.95502886  0.86983686     0.17700
H1157       H  0.28060243  0.04557281  0.87973992     0.17700
F1158       F  0.22575564  0.95492339  0.86862851    -0.20000
C1159       C  0.01671163  0.67320870  0.85922342    -0.21500
C1160       C  0.04731439  0.69326425  0.83519909    -0.09500
C1161       C  0.02737666  0.68555066  0.80707499     0.29300
C1162       C  0.97751941  0.66072821  0.80332257    -0.21500
C1163       C  0.94683672  0.64165971  0.82737603    -0.09500
C1164       C  0.96680466  0.64667798  0.85535611     0.29300
F1165       F  0.93809707  0.62797863  0.87912060    -0.20100
H1166       H  0.03148913  0.67823847  0.88098472     0.17700
H1167       H  0.96281865  0.65679682  0.78160565     0.17700
F1168       F  0.05596502  0.70403752  0.78329030    -0.20000
C1169       C  0.25403005  0.64782992  0.88148838    -0.21500
C1170       C  0.21082662  0.64872000  0.87984428    -0.09500
C1171       C  0.16714884  0.60676370  0.88660876     0.29300
C1172       C  0.16728961  0.56503655  0.89567608    -0.21500
C1173       C  0.21076967  0.56431971  0.89735452    -0.09500
C1174       C  0.25416964  0.60618309  0.88981044     0.29300
F1175       F  0.29722635  0.60767395  0.89133060    -0.20100
H1176       H  0.28805217  0.67954143  0.87597393     0.17700
H1177       H  0.13346450  0.53336317  0.90149868     0.17700
F1178       F  0.12470341  0.60653553  0.88527485    -0.20000
C1179       C  0.34859695  0.74460559  0.81477938    -0.21500
C1180       C  0.34733592  0.78768195  0.81411673    -0.09500
C1181       C  0.38832045  0.83038703  0.80511280     0.29300
C1182       C  0.42995577  0.82960832  0.79667277    -0.21500
C1183       C  0.43143770  0.78646118  0.79774174    -0.09500
C1184       C  0.39018245  0.74387351  0.80698435     0.29300
F1185       F  0.38942399  0.70113845  0.80800450    -0.20100
H1186       H  0.31742912  0.71137209  0.82196244     0.17700
H1187       H  0.46106377  0.86274727  0.78937769     0.17700
F1188       F  0.38768683  0.87239429  0.80387097    -0.20000
C1189       C  0.34078927  0.03402221  0.59887297    -0.21500
C1190       C  0.35403074  0.05293937  0.62708365    -0.09500
C1191       C  0.34309484  0.02154044  0.65074714     0.29300
C1192       C  0.31867678  0.97183087  0.64625417    -0.21500
C1193       C  0.30359805  0.95267435  0.61821655    -0.09500
C1194       C  0.31502044  0.98419250  0.59444729     0.29300
F1195       F  0.30115573  0.96691011  0.56707087    -0.20100
H1196       H  0.34883570  0.05787005  0.58039606     0.17700
H1197       H  0.30999786  0.94821420  0.66490778     0.17700
F1198       F  0.35603180  0.03897304  0.67816678    -0.20000
C1199       C  0.97712224  0.67338630  0.55865995    -0.21500
C1200       C  0.94690912  0.64898322  0.58234668    -0.09500
C1201       C  0.96793064  0.64961812  0.60943450     0.29300
C1202       C  0.01812830  0.67547933  0.61268728    -0.21500
C1203       C  0.04789941  0.69981615  0.58890694    -0.09500
C1204       C  0.02710634  0.69823603  0.56180579     0.29300
F1205       F  0.05517353  0.72269263  0.53868939    -0.20100
H1206       H  0.96197212  0.67369651  0.53763081     0.17700
H1207       H  0.03382136  0.67660954  0.63377943     0.17700
F1208       F  0.94013324  0.62692137  0.63299412    -0.20000
C1209       C  0.24047659  0.83168675  0.96326645    -0.21500
C1210       C  0.19732496  0.81462864  0.94771269    -0.09500
C1211       C  0.15450825  0.80167638  0.96305997     0.29300
C1212       C  0.15474469  0.80228211  0.99376059    -0.21500
C1213       C  0.19786334  0.82280719  0.50920658    -0.09500
C1214       C  0.24075915  0.83229781  0.99355685     0.29300
F1215       F  0.28148779  0.84511291  0.50789350    -0.20100
H1216       H  0.27402019  0.84261208  0.95183600     0.17700
H1217       H  0.12357781  0.80558544  0.50530307     0.17700
F1218       F  0.11220619  0.78485840  0.94860723    -0.20000
C1219       C  0.20115157  0.85585214  0.71238252    -0.21500
C1220       C  0.17788000  0.81218264  0.69691495    -0.09500
C1221       C  0.15099264  0.76882525  0.71213294     0.29300
C1222       C  0.15048706  0.76870455  0.74239800    -0.21500
C1223       C  0.17680981  0.81166298  0.75804561    -0.09500
C1224       C  0.20097055  0.85563110  0.74296675     0.29300
F1225       F  0.22818508  0.89741127  0.75761480    -0.20100
H1226       H  0.22313451  0.88947054  0.70090934     0.17700
H1227       H  0.13302953  0.73439862  0.75365937     0.17700
F1228       F  0.12898276  0.72613610  0.69771893    -0.20000
C1229       C  0.25434548  0.60979797  0.65050551    -0.21500
C1230       C  0.21100776  0.56729605  0.65665092    -0.09500
C1231       C  0.16717299  0.56714637  0.65357316     0.29300
C1232       C  0.16701478  0.60868677  0.64397504    -0.21500
C1233       C  0.21056709  0.65124878  0.63819204    -0.09500
C1234       C  0.25430648  0.65136747  0.64165228     0.29300
F1235       F  0.29725597  0.69135283  0.63570542    -0.20100
H1236       H  0.28858502  0.61116169  0.65296309     0.17700
H1237       H  0.13303920  0.60777773  0.64136685     0.17700
F1238       F  0.12454998  0.52680030  0.65938467    -0.20000
C1239       C  0.39312794  0.82964927  0.57225108    -0.21500
C1240       C  0.34825504  0.78681337  0.57201608    -0.09500
C1241       C  0.34611157  0.74368715  0.56306688     0.29300
C1242       C  0.38791833  0.74349789  0.55505392    -0.21500
C1243       C  0.43257165  0.78618061  0.55511557    -0.09500
C1244       C  0.43499139  0.82951811  0.56350365     0.29300
F1245       F  0.47781694  0.87138132  0.56377171    -0.20100
H1246       H  0.39577759  0.86321433  0.57913934     0.17700
H1247       H  0.38517348  0.70986802  0.54813929     0.17700
F1248       F  0.30380445  0.70125683  0.56254456    -0.20000
loop_ 
_geom_bond_atom_site_label_1 
_geom_bond_atom_site_label_2 
_geom_bond_distance 
_geom_bond_site_symmetry_2 
_ccdc_geom_bond_type 
O1          Cr19   1.962       .  S
O1            C9   1.259       .  A
O2          Cr19   2.003       .  S
O2            C3   1.267       .  A
C3            O4   1.262       .  A
C3          C616   1.475       .  S
O4          Cr20   1.980       .  S
O5          Cr20   2.001       .  S
O5            C6   1.263       .  A
C6            O7   1.260       .  A
C6          C569   1.476       .  S
O7          Cr21   1.982       .  S
O8          Cr21   2.042       .  S
O8            C9   1.272       .  A
C9          C589   1.481       .  S
O10         Cr19   2.008       .  S
O10          C18   1.264       .  A
O11         Cr19   1.989       .  S
O11          C12   1.263       .  A
C12          O13   1.264       .  A
C12         C609   1.479       .  S
O13         Cr20   1.999       .  S
O14         Cr20   1.955       .  S
O14          C15   1.258       .  A
C15          O16   1.271       .  A
C15         C596   1.473       .  S
O16         Cr21   2.038       .  S
O17         Cr21   1.974       .  S
O17          C18   1.258       .  A
C18         C579   1.467       .  S
Cr19         O22   1.764       .  S
Cr20         O22   1.764       .  S
Cr21         O22   1.772       .  S
O23         Cr41   1.957       .  S
O23          C31   1.258       .  A
O24         Cr41   2.009       .  S
O24          C25   1.267       .  A
C25          O26   1.260       .  A
C25         C556   1.479       .  S
O26         Cr42   1.981       .  S
O27         Cr42   2.000       .  S
O27          C28   1.262       .  A
C28          O29   1.261       .  A
C28         C526   1.469       .  S
O29         Cr43   1.984       .  S
O30         Cr43   2.038       .  S
O30          C31   1.271       .  A
C31         C599   1.472       .  S
O32         Cr41   1.995       .  S
O32          C40   1.262       .  A
O33         Cr41   1.978       .  S
O33          C34   1.258       .  A
C34          O35   1.267       .  A
C34         C546   1.470       .  S
O35         Cr42   2.012       .  S
O36         Cr42   1.958       .  S
O36          C37   1.260       .  A
C37          O38   1.271       .  A
C37         C586   1.475       .  S
O38         Cr43   2.037       .  S
O39         Cr43   1.987       .  S
O39          C40   1.262       .  A
C40         C536   1.473       .  S
Cr41         O44   1.764       .  S
Cr42         O44   1.765       .  S
Cr43         O44   1.775       .  S
O45         Cr63   1.953       .  S
O45          C53   1.256       .  A
O46         Cr63   2.014       .  S
O46          C47   1.269       .  A
C47          O48   1.262       .  A
C47         C606   1.475       .  S
O48         Cr64   1.978       .  S
O49         Cr64   2.008       .  S
O49          C50   1.264       .  A
C50          O51   1.260       .  A
C50         C476   1.471       .  S
O51         Cr65   1.980       .  S
O52         Cr65   2.045       .  S
O52          C53   1.272       .  A
C53         C506   1.479       .  S
O54         Cr63   2.010       .  S
O54          C62   1.265       .  A
O55         Cr63   1.981       .  S
O55          C56   1.258       .  A
C56          O57   1.266       .  A
C56         C516   1.475       .  S
O57         Cr64   2.007       .  S
O58         Cr64   1.953       .  S
O58          C59   1.258       .  A
C59          O60   1.273       .  A
C59         C496   1.472       .  S
O60         Cr65   2.044       .  S
O61         Cr65   1.976       .  S
O61          C62   1.260       .  A
C62         C489   1.472       .  S
Cr63         O66   1.761       .  S
Cr64         O66   1.761       .  S
Cr65         O66   1.771       .  S
O67         Cr85   1.958       .  S
O67          C75   1.260       .  A
O68         Cr85   2.009       .  S
O68          C69   1.266       .  A
C69          O70   1.260       .  A
C69         C549   1.482       .  S
O70         Cr86   1.977       .  S
O71         Cr86   2.007       .  S
O71          C72   1.265       .  A
C72          O73   1.260       .  A
C72         C449   1.468       .  S
O73         Cr87   1.970       .  S
O74         Cr87   2.033       .  S
O74          C75   1.271       .  A
C75         C499   1.468       .  S
O76         Cr85   1.999       .  S
O76          C84   1.261       .  A
O77         Cr85   1.980       .  S
O77          C78   1.260       .  A
C78          O79   1.268       .  A
C78         C469   1.473       .  S
O79         Cr86   2.012       .  S
O80         Cr86   1.961       .  S
O80          C81   1.258       .  A
C81          O82   1.267       .  A
C81        C1133   1.469       .  S
O82         Cr87   2.025       .  S
O83         Cr87   1.981       .  S
O83          C84   1.258       .  A
C84         C459   1.463       .  S
Cr85         O88   1.766       .  S
Cr86         O88   1.764       .  S
Cr87         O88   1.775       .  S
O89        Cr107   1.950       .  S
O89          C97   1.256       .  A
O90        Cr107   2.015       .  S
O90          C91   1.270       .  A
C91         O716   1.261       .  A
C91         C466   1.482       .  S
O92        Cr108   1.977       .  S
O92         C715   1.262   1_554  A
O93        Cr108   2.001       .  S
O93          C94   1.262       .  A
C94          O95   1.260       .  A
C94         C406   1.480       .  S
O95        Cr109   1.987       .  S
O96        Cr733   2.033       .  S
O96          C97   1.270       .  A
C97         C426   1.471       .  S
O98        Cr107   2.004       .  S
O98         C730   1.264       .  A
O99        Cr731   1.978   1_554  S
O99         C100   1.256       .  A
C100        O101   1.262       .  A
C100        C619   1.472       .  S
O101       Cr108   2.001       .  S
O102       Cr108   1.962       .  S
O102        C103   1.259       .  A
C103        O104   1.274       .  A
C103        C436   1.471       .  S
O104       Cr109   2.040       .  S
O105       Cr109   1.976       .  S
O105        C106   1.260       .  A
C106        O722   1.262   1_554  A
C106        C416   1.468       .  S
Cr107       O723   1.973       .  S
Cr107       O734   1.761       .  S
Cr108       O110   1.771       .  S
Cr109       O720   2.028   1_554  S
Cr109       O110   1.776       .  S
O110       Cr731   1.769   1_554  S
O111       Cr129   1.965       .  S
O111        C119   1.258       .  A
O112       Cr129   2.011       .  S
O112        C113   1.269       .  A
C113        O114   1.260       .  A
C113        C519   1.476       .  S
O114       Cr130   1.978       .  S
O115       Cr130   2.011       .  S
O115        C116   1.265       .  A
C116        O117   1.261       .  A
C116        C389   1.472       .  S
O117       Cr131   1.981       .  S
O118       Cr131   2.037       .  S
O118        C119   1.270       .  A
C119        C439   1.473       .  S
O120       Cr129   2.013       .  S
O120        C128   1.266       .  A
O121       Cr129   1.984       .  S
O121        C122   1.260       .  A
C122        O123   1.266       .  A
C122        C559   1.477       .  S
O123       Cr130   2.009       .  S
O124       Cr130   1.959       .  S
O124        C125   1.258       .  A
C125        O126   1.270       .  A
C125        C429   1.474       .  S
O126       Cr131   2.034       .  S
O127       Cr131   1.974       .  S
O127        C128   1.259       .  A
C128        C399   1.473       .  S
Cr129       O132   1.763       .  S
Cr130       O132   1.762       .  S
Cr131       O132   1.768       .  S
O133       Cr151   1.963       .  S
O133        C141   1.258       .  A
O134       Cr151   2.011       .  S
O134        C135   1.268       .  A
C135        O136   1.260       .  A
C135        C379   1.474       .  S
O136       Cr152   1.980       .  S
O137       Cr152   2.012       .  S
O137        C138   1.266       .  A
C138        O139   1.259       .  A
C138        C396   1.472       .  S
O139       Cr153   1.974       .  S
O140       Cr153   2.033       .  S
O140        C141   1.269       .  A
C141        C359   1.471       .  S
O142       Cr151   2.014       .  S
O142        C150   1.268       .  A
O143       Cr151   1.978       .  S
O143        C144   1.260       .  A
C144        O145   1.267       .  A
C144        C366   1.479       .  S
O145       Cr152   2.006       .  S
O146       Cr152   1.956       .  S
O146        C147   1.257       .  A
C147        O148   1.270       .  A
C147        C349   1.475       .  S
O148       Cr153   2.039       .  S
O149       Cr153   1.972       .  S
O149        C150   1.260       .  A
C150        C479   1.477       .  S
Cr151       O154   1.760       .  S
Cr152       O154   1.760       .  S
Cr153       O154   1.768       .  S
O155       Cr173   1.953       .  S
O155        C163   1.257       .  A
O156       Cr173   2.009       .  S
O156        C157   1.269       .  A
C157        O782   1.261   1_554  A
C157        C326   1.478       .  S
O158       Cr174   1.972       .  S
O158        C781   1.257       .  A
O159       Cr174   1.999       .  S
O159        C160   1.261       .  A
C160        O161   1.259       .  A
C160        C446   1.477       .  S
O161       Cr175   1.977       .  S
O162       Cr799   2.036   1_554  S
O162        C163   1.271       .  A
C163        C356   1.469       .  S
O164       Cr173   2.010       .  S
O164        C796   1.264   1_554  A
O165       Cr797   1.973       .  S
O165        C166   1.259       .  A
C166        O167   1.268       .  A
C166        C336   1.477       .  S
O167       Cr174   2.015       .  S
O168       Cr174   1.953       .  S
O168        C169   1.259       .  A
C169        O170   1.273       .  A
C169        C346   1.474       .  S
O170       Cr175   2.037       .  S
O171       Cr175   1.978       .  S
O171        C172   1.259       .  A
C172        O788   1.261       .  A
C172        C419   1.470       .  S
Cr173       O789   1.976   1_554  S
Cr173       O800   1.766   1_554  S
Cr174       O176   1.770       .  S
Cr175       O786   2.034       .  S
Cr175       O176   1.776       .  S
O176       Cr797   1.770       .  S
O177       Cr195   1.960       .  S
O177        C185   1.259       .  A
O178       Cr195   2.004       .  S
O178        C179   1.266       .  A
C179        O180   1.260       .  A
C179        C329   1.475       .  S
O180       Cr196   1.982       .  S
O181       Cr196   2.007       .  S
O181        C182   1.265       .  A
C182        O183   1.260       .  A
C182        C576   1.477       .  S
O183       Cr197   1.977       .  S
O184       Cr197   2.041       .  S
O184        C185   1.272       .  A
C185        C923   1.481   1_554  S
O186       Cr195   2.010       .  S
O186        C194   1.264       .  A
O187       Cr195   1.988       .  S
O187        C188   1.263       .  A
C188        O189   1.268       .  A
C188        C316   1.489       .  S
O189       Cr196   2.012       .  S
O190       Cr196   1.952       .  S
O190        C191   1.257       .  A
C191        O192   1.271       .  A
C191        C309   1.475       .  S
O192       Cr197   2.041       .  S
O193       Cr197   1.980       .  S
O193        C194   1.260       .  A
C194        C409   1.471       .  S
Cr195       O198   1.762       .  S
Cr196       O198   1.761       .  S
Cr197       O198   1.773       .  S
O199       Cr217   1.950       .  S
O199        C207   1.257       .  A
O200       Cr217   2.006       .  S
O200        C201   1.267       .  A
C201        O202   1.261       .  A
C201        C286   1.480       .  S
O202       Cr218   1.980       .  S
O203       Cr218   2.002       .  S
O203        C204   1.263       .  A
C204        O205   1.262       .  A
C204        C386   1.478       .  S
O205       Cr219   1.986       .  S
O206       Cr219   2.039       .  S
O206        C207   1.272       .  A
C207        C296   1.470       .  S
O208       Cr217   2.001       .  S
O208        C216   1.262       .  A
O209       Cr217   1.978       .  S
O209        C210   1.258       .  A
C210        O211   1.266       .  A
C210        C369   1.468       .  S
O211       Cr218   2.009       .  S
O212       Cr218   1.956       .  S
O212        C213   1.258       .  A
C213        O214   1.272       .  A
C213        C306   1.473       .  S
O214       Cr219   2.040       .  S
O215       Cr219   1.981       .  S
O215        C216   1.261       .  A
C216        C539   1.469       .  S
Cr217       O220   1.763       .  S
Cr218       O220   1.763       .  S
Cr219       O220   1.772       .  S
O221       Cr239   1.958       .  S
O221        C229   1.260       .  A
O222       Cr239   2.015       .  S
O222        C223   1.267       .  A
C223        O224   1.260       .  A
C223        C319   1.478       .  S
O224       Cr240   1.987       .  S
O225       Cr240   2.007       .  S
O225        C226   1.265       .  A
C226        O227   1.261       .  A
C226        C486   1.471       .  S
O227       Cr241   1.980       .  S
O228       Cr241   2.039       .  S
O228        C229   1.272       .  A
C229        C276   1.474       .  S
O230       Cr239   2.008       .  S
O230        C238   1.264       .  A
O231       Cr239   1.980       .  S
O231        C232   1.261       .  A
C232        O233   1.269       .  A
C232        C376   1.480       .  S
O233       Cr240   2.012       .  S
O234       Cr240   1.957       .  S
O234        C235   1.257       .  A
C235        O236   1.270       .  A
C235        C266   1.473       .  S
O236       Cr241   2.037       .  S
O237       Cr241   1.980       .  S
O237        C238   1.259       .  A
C238        C566   1.470       .  S
Cr239       O242   1.762       .  S
Cr240       O242   1.760       .  S
Cr241       O242   1.773       .  S
O243       Cr261   1.955       .  S
O243        C251   1.259       .  A
O244       Cr261   2.006       .  S
O244        C245   1.265       .  A
C245        O246   1.257       .  A
C245        C289   1.470       .  S
O246       Cr262   1.979       .  S
O247       Cr262   1.996       .  S
O247        C248   1.262       .  A
C248        O249   1.262       .  A
C248        C456   1.476       .  S
O249       Cr263   1.980       .  S
O250       Cr263   2.039       .  S
O250        C251   1.271       .  A
C251        C269   1.475       .  S
O252       Cr261   2.002       .  S
O252        C260   1.263       .  A
O253       Cr261   1.980       .  S
O253        C254   1.262       .  A
C254        O255   1.267       .  A
C254        C339   1.474       .  S
O255       Cr262   2.007       .  S
O256       Cr262   1.953       .  S
O256        C257   1.258       .  A
C257        O258   1.269       .  A
C257        C279   1.469       .  S
O258       Cr263   2.031       .  S
O259       Cr263   1.983       .  S
O259        C260   1.261       .  A
C260        C529   1.476       .  S
Cr261       O264   1.761       .  S
Cr262       O264   1.763       .  S
Cr263       O264   1.773       .  S
C265        C266   1.406       .  A
C265        C270   1.410       .  A
C265        H272   1.083       .  S
C266        C267   1.404       .  A
C267        C268   1.388       .  A
C267        F274   1.358       .  S
C268        C269   1.400       .  A
C268        H273   1.084       .  S
C269        C270   1.411       .  A
C270        F271   1.357       .  S
C275        C276   1.400       .  A
C275        C280   1.389       .  A
C275        H282   1.083       .  S
C276        C277   1.410       .  A
C277        C278   1.408       .  A
C277        F284   1.356       .  S
C278        C903   1.404   1_554  A
C278        H907   1.082   1_554  S
C279        C902   1.403       .  A
C279        C904   1.405       .  A
C280        C903   1.405   1_554  A
C280        F905   1.358   1_554  S
F281        C904   1.359       .  S
H283        C902   1.082       .  S
C285        C286   1.409       .  A
C285        C290   1.403       .  A
C285        H292   1.082       .  S
C286        C287   1.409       .  A
C287        C288   1.389       .  A
C287        F294   1.358       .  S
C288        C289   1.400       .  A
C288        H293   1.083       .  S
C289        C290   1.405       .  A
C290        F291   1.357       .  S
C295        C296   1.402       .  A
C295        C300   1.405       .  A
C295        H302   1.083       .  S
C296        C297   1.406       .  A
C297        C298   1.391       .  A
C297        F304   1.359       .  S
C298        C299   1.401       .  A
C298        H303   1.084       .  S
C299        C809   1.473       .  S
C299        C300   1.409       .  A
C300        F301   1.357       .  S
C305        C306   1.406       .  A
C305        C310   1.411       .  A
C305        H312   1.083       .  S
C306        C307   1.404       .  A
C307        C308   1.388       .  A
C307        F314   1.358       .  S
C308        C309   1.400       .  A
C308        H313   1.084       .  S
C309        C310   1.411       .  A
C310        F311   1.357       .  S
C315        C316   1.410       .  A
C315        C320   1.407       .  A
C315        H322   1.082       .  S
C316        C317   1.411       .  A
C317        C318   1.395       .  A
C317        F324   1.358       .  S
C318        C319   1.401       .  A
C318        H323   1.083       .  S
C319        C320   1.406       .  A
C320        F321   1.357       .  S
C325        C950   1.400       .  A
C325        C954   1.388       .  A
C325        H332   1.084       .  S
C326        C327   1.410       .  A
C326        C949   1.403       .  A
C327        C328   1.405       .  A
C327        F334   1.357       .  S
C328        C329   1.406       .  A
C328        H333   1.083       .  S
C329        C330   1.405       .  A
C330        C949   1.389       .  A
C330        F955   1.358       .  S
F331        C954   1.359       .  S
C335        C336   1.407       .  A
C335        C340   1.401       .  A
C335        H342   1.083       .  S
C336        C337   1.407       .  A
C337        C338   1.392       .  A
C337        F344   1.358       .  S
C338        C339   1.404       .  A
C338        H343   1.084       .  S
C339        C340   1.405       .  A
C340        F341   1.357       .  S
C345        C346   1.404       .  A
C345        C350   1.408       .  A
C345        H352   1.083       .  S
C346        C347   1.405       .  A
C347        C348   1.390       .  A
C347        F354   1.359       .  S
C348        C349   1.402       .  A
C348        H353   1.084       .  S
C349        C350   1.409       .  A
C350        F351   1.357       .  S
C355        C356   1.403       .  A
C355        C360   1.394       .  A
C355        H362   1.084       .  S
C356        C357   1.404       .  A
C357        C358   1.406       .  A
C357        F364   1.357       .  S
C358        C359   1.407       .  A
C358        H363   1.084       .  S
C359        C360   1.402       .  A
C360        F361   1.358       .  S
C365        C366   1.405       .  A
C365        C370   1.390       .  A
C365        H372   1.083       .  S
C366        C367   1.411       .  A
C367        C368   1.403       .  A
C367        F374   1.357       .  S
C368        C369   1.403       .  A
C368        H373   1.083       .  S
C369        C370   1.403       .  A
C370        F371   1.358       .  S
C375        C376   1.404       .  A
C375        C380   1.391       .  A
C375        H382   1.084       .  S
C376        C377   1.410       .  A
C377        C378   1.405       .  A
C377        F384   1.357       .  S
C378        C379   1.404       .  A
C378        H383   1.084       .  S
C379        C380   1.405       .  A
C380        F381   1.358       .  S
C385        C386   1.403       .  A
C385        C390   1.400       .  A
C385        H392   1.084       .  S
C386        C387   1.411       .  A
C387        C388   1.397       .  A
C387        F394   1.357       .  S
C388        C389   1.399       .  A
C388        H393   1.084       .  S
C389        C390   1.408       .  A
C390        F391   1.357       .  S
C395        C396   1.404       .  A
C395        C400   1.398   1_545  A
C395        H402   1.084       .  S
C396        C397   1.406       .  A
C397        C398   1.398   1_545  A
C397        F404   1.358       .  S
C398        C399   1.404       .  A
C398        H403   1.084       .  S
C399        C400   1.406       .  A
C400        F401   1.358       .  S
C405        C406   1.408       .  A
C405        C410   1.397       .  A
C405        H412   1.083       .  S
C406        C407   1.407       .  A
C407        C408   1.400       .  A
C407        F414   1.357   1_554  S
C408        C409   1.405       .  A
C408        H413   1.083   1_554  S
C409        C410   1.401       .  A
C410        F411   1.358       .  S
C415        C416   1.402       .  A
C415       C1044   1.403   1_565  A
C415        H422   1.083       .  S
C416        C417   1.402   1_554  A
C417       C1042   1.395   1_565  A
C417        F424   1.358       .  S
C418        C419   1.401       .  A
C418       C1041   1.402   1_545  A
C418        H423   1.083       .  S
C419        C420   1.403       .  A
C420       C1039   1.397   1_545  A
C420        F421   1.358       .  S
C425        C426   1.402       .  A
C425        C430   1.389       .  A
C425        H432   1.086       .  S
C426        C427   1.404       .  A
C427        C428   1.407       .  A
C427        F434   1.357       .  S
C428        C429   1.408       .  A
C428        H433   1.084       .  S
C429        C430   1.403       .  A
C430        F431   1.358       .  S
C435        C436   1.403       .  A
C435        C440   1.399       .  A
C435        H442   1.082       .  S
C436        C437   1.404       .  A
C437        C438   1.404       .  A
C437        F444   1.358       .  S
C438        C439   1.406       .  A
C438        H443   1.082       .  S
C439        C440   1.403       .  A
C440        F441   1.357       .  S
C445        C446   1.407       .  A
C445        C450   1.401   1_655  A
C445        H452   1.083       .  S
C446        C447   1.407       .  A
C447        C448   1.396   1_655  A
C447        F454   1.358       .  S
C448        C449   1.401       .  A
C448        H453   1.084       .  S
C449        C450   1.403       .  A
C450        F451   1.358       .  S
C455        C456   1.402       .  A
C455        C460   1.394       .  A
C455        H462   1.085       .  S
C456        C457   1.413       .  A
C457        C458   1.397       .  A
C457        F464   1.357       .  S
C458        C459   1.398       .  A
C458        H463   1.085       .  S
C459        C460   1.404       .  A
C460        F461   1.357       .  S
C465        C466   1.405       .  A
C465        C470   1.392       .  A
C465        H472   1.083       .  S
C466        C467   1.411       .  A
C467        C468   1.403       .  A
C467        F474   1.357       .  S
C468        C469   1.404       .  A
C468        H473   1.083       .  S
C469        C470   1.404       .  A
C470        F471   1.358       .  S
C475        C476   1.404       .  A
C475        C480   1.397   1_455  A
C475        H482   1.084       .  S
C476        C477   1.403       .  A
C477        C478   1.399   1_455  A
C477        F484   1.357       .  S
C478        C479   1.407       .  A
C478        H483   1.083       .  S
C479        C480   1.407       .  A
C480        F481   1.358       .  S
C485        C486   1.401       .  A
C485        C490   1.399       .  A
C485        H492   1.085       .  S
C486        C487   1.407       .  A
C487        C488   1.397       .  A
C487        F494   1.357       .  S
C488        C489   1.401       .  A
C488        H493   1.085       .  S
C489        C490   1.408       .  A
C490        F491   1.358       .  S
C495        C496   1.407       .  A
C495        C500   1.407       .  A
C495        H502   1.084       .  S
C496        C497   1.404       .  A
C497        C498   1.391       .  A
C497        F504   1.358       .  S
C498        C499   1.401       .  A
C498        H503   1.085       .  S
C499        C500   1.404       .  A
C500        F501   1.357       .  S
C505        C506   1.405       .  A
C505        C510   1.411       .  A
C505        H512   1.083       .  S
C506        C507   1.407       .  A
C507        C508   1.391       .  A
C507        F514   1.359       .  S
C508        C509   1.400       .  A
C508        H513   1.084       .  S
C509        C705   1.480       .  S
C509        C510   1.411       .  A
C510        F511   1.357       .  S
C515        C516   1.406       .  A
C515        C520   1.404       .  A
C515        H522   1.085       .  S
C516        C517   1.407       .  A
C517        C518   1.389       .  A
C517        F524   1.358       .  S
C518        C519   1.402       .  A
C518        H523   1.085       .  S
C519        C520   1.408       .  A
C520        F521   1.357       .  S
C525        C526   1.399       .  A
C525        C530   1.398   1_565  A
C525        H532   1.084       .  S
C526        C527   1.407       .  A
C527        C528   1.398   1_565  A
C527        F534   1.358       .  S
C528        C529   1.402       .  A
C528        H533   1.083       .  S
C529        C530   1.411       .  A
C530        F531   1.357       .  S
C535        C536   1.401       .  A
C535        C540   1.399   1_455  A
C535        H542   1.084       .  S
C536        C537   1.410       .  A
C537        C538   1.395   1_455  A
C537        F544   1.357       .  S
C538        C539   1.398       .  A
C538        H543   1.085       .  S
C539        C540   1.409       .  A
C540        F541   1.357       .  S
C545        C546   1.401       .  A
C545        C550   1.393       .  A
C545        H552   1.085       .  S
C546        C547   1.404       .  A
C547        C548   1.401       .  A
C547        F554   1.357       .  S
C548        C549   1.409       .  A
C548        H553   1.083       .  S
C549        C550   1.410       .  A
C550        F551   1.358       .  S
C555        C556   1.404       .  A
C555        C560   1.393       .  A
C555        H562   1.084       .  S
C556        C557   1.408       .  A
C557        C558   1.403       .  A
C557        F564   1.357       .  S
C558        C559   1.405       .  A
C558        H563   1.083       .  S
C559        C560   1.407       .  A
C560        F561   1.358       .  S
C565        C566   1.404       .  A
C565        C570   1.398   1_545  A
C565        H572   1.083       .  S
C566        C567   1.402       .  A
C567        C568   1.397   1_545  A
C567        F574   1.358       .  S
C568        C569   1.408       .  A
C568        H573   1.084       .  S
C569        C570   1.405       .  A
C570        F571   1.357       .  S
C575        C576   1.404       .  A
C575        C580   1.397   1_655  A
C575        H582   1.085       .  S
C576        C577   1.410       .  A
C577        C578   1.397   1_655  A
C577        F584   1.357       .  S
C578        C579   1.400       .  A
C578        H583   1.085       .  S
C579        C580   1.404       .  A
C580        F581   1.357       .  S
C585        C586   1.401       .  A
C585        C590   1.389       .  A
C585        H592   1.084       .  S
C586        C587   1.407       .  A
C587        C588   1.410       .  A
C587        F594   1.357       .  S
C588       C1213   1.408       .  A
C588       H1217   1.083       .  S
C589       C1212   1.410   1_554  A
C589       C1214   1.404   1_554  A
C590       C1213   1.405       .  A
C590       F1215   1.359       .  S
F591       C1214   1.358   1_554  S
H593       C1212   1.082   1_554  S
C595        C596   1.408       .  A
C595        C600   1.409       .  A
C595        H602   1.083       .  S
C596        C597   1.403       .  A
C597        C598   1.390       .  A
C597        F604   1.358       .  S
C598        C599   1.402       .  A
C598        H603   1.084       .  S
C599        C600   1.405       .  A
C600        F601   1.357       .  S
C605        C606   1.402       .  A
C605        C610   1.392       .  A
C605        H612   1.082       .  S
C606        C607   1.407       .  A
C607        C608   1.403       .  A
C607        F614   1.357       .  S
C608        C609   1.405       .  A
C608        H613   1.081       .  S
C609        C610   1.410       .  A
C610        F611   1.359       .  S
C615        C616   1.405       .  A
C615        C620   1.402       .  A
C615        H622   1.083       .  S
C616        C617   1.409       .  A
C617        C618   1.390       .  A
C617        F624   1.358       .  S
C618        C619   1.402       .  A
C618        H623   1.084       .  S
C619        C620   1.406       .  A
C620        F621   1.357       .  S
O625       Cr643   1.953       .  S
O625        C633   1.258       .  A
O626       Cr643   2.003       .  S
O626        C627   1.266       .  A
C627        O628   1.262       .  A
C627       C1240   1.478       .  S
O628       Cr644   1.981       .  S
O629       Cr644   2.002       .  S
O629        C630   1.264       .  A
C630        O631   1.259       .  A
C630       C1193   1.473       .  S
O631       Cr645   1.978       .  S
O632       Cr645   2.038       .  S
O632        C633   1.271       .  A
C633       C1213   1.477       .  S
O634       Cr643   2.007       .  S
O634        C642   1.264       .  A
O635       Cr643   1.987       .  S
O635        C636   1.262       .  A
C636        O637   1.266       .  A
C636       C1233   1.479       .  S
O637       Cr644   2.004       .  S
O638       Cr644   1.958       .  S
O638        C639   1.259       .  A
C639        O640   1.270       .  A
C639       C1220   1.467       .  S
O640       Cr645   2.031       .  S
O641       Cr645   1.979       .  S
O641        C642   1.258       .  A
C642       C1203   1.468       .  S
Cr643       O646   1.762       .  S
Cr644       O646   1.762       .  S
Cr645       O646   1.772       .  S
O647       Cr665   1.954       .  S
O647        C655   1.259       .  A
O648       Cr665   2.000       .  S
O648        C649   1.262       .  A
C649        O650   1.256       .  A
C649       C1180   1.467       .  S
O650       Cr666   1.978       .  S
O651       Cr666   2.004       .  S
O651        C652   1.264       .  A
C652        O653   1.261       .  A
C652       C1150   1.476       .  S
O653       Cr667   1.976       .  S
O654       Cr667   2.042       .  S
O654        C655   1.274       .  A
C655       C1223   1.467       .  S
O656       Cr665   1.993       .  S
O656        C664   1.259       .  A
O657       Cr665   1.973       .  S
O657        C658   1.260       .  A
C658        O659   1.271       .  A
C658       C1170   1.473       .  S
O659       Cr666   2.017       .  S
O660       Cr666   1.956       .  S
O660        C661   1.258       .  A
C661        O662   1.271       .  A
C661       C1210   1.479       .  S
O662       Cr667   2.037       .  S
O663       Cr667   1.989       .  S
O663        C664   1.261       .  A
C664       C1160   1.471       .  S
Cr665       O668   1.768       .  S
Cr666       O668   1.764       .  S
Cr667       O668   1.773       .  S
O669       Cr687   1.951       .  S
O669        C677   1.256       .  A
O670       Cr687   2.016       .  S
O670        C671   1.269       .  A
C671        O672   1.262       .  A
C671       C1230   1.481       .  S
O672       Cr688   1.982       .  S
O673       Cr688   2.011       .  S
O673        C674   1.265       .  A
C674        O675   1.260       .  A
C674       C1100   1.472       .  S
O675       Cr689   1.980       .  S
O676       Cr689   2.036       .  S
O676        C677   1.271       .  A
C677       C1130   1.468       .  S
O678       Cr687   2.010       .  S
O678        C686   1.265       .  A
O679       Cr687   1.971       .  S
O679        C680   1.257       .  A
C680        O681   1.267       .  A
C680       C1140   1.471       .  S
O681       Cr688   2.007       .  S
O682       Cr688   1.960       .  S
O682        C683   1.258       .  A
C683        O684   1.271       .  A
C683       C1120   1.473       .  S
O684       Cr689   2.039       .  S
O685       Cr689   1.981       .  S
O685        C686   1.260       .  A
C686       C1113   1.473       .  S
Cr687       O690   1.763       .  S
Cr688       O690   1.762       .  S
Cr689       O690   1.769       .  S
O691       Cr709   1.956       .  S
O691        C699   1.259       .  A
O692       Cr709   2.002       .  S
O692        C693   1.265       .  A
C693        O694   1.260       .  A
C693       C1173   1.478       .  S
O694       Cr710   1.981       .  S
O695       Cr710   2.001       .  S
O695        C696   1.264       .  A
C696        O697   1.258       .  A
C696       C1073   1.466       .  S
O697       Cr711   1.967       .  S
O698       Cr711   2.044       .  S
O698        C699   1.274       .  A
C699       C1123   1.471       .  S
O700       Cr709   2.001       .  S
O700        C708   1.261       .  A
O701       Cr709   1.981       .  S
O701        C702   1.261       .  A
C702        O703   1.267       .  A
C702       C1093   1.471       .  S
O703       Cr710   2.010       .  S
O704       Cr710   1.962       .  S
O704        C705   1.259   1_556  A
C705        O706   1.271   1_554  A
O706       Cr711   2.036       .  S
O707       Cr711   1.981       .  S
O707        C708   1.258       .  A
C708       C1083   1.468       .  S
Cr709       O712   1.766       .  S
Cr710       O712   1.766       .  S
Cr711       O712   1.774       .  S
O713       Cr731   1.960       .  S
O713        C721   1.259       .  A
O714       Cr731   2.014       .  S
O714        C715   1.271       .  A
C715       C1090   1.483       .  S
O716       Cr732   1.977       .  S
O717       Cr732   2.000       .  S
O717        C718   1.263       .  A
C718        O719   1.259       .  A
C718       C1030   1.474       .  S
O719       Cr733   1.985       .  S
O720        C721   1.269       .  A
C721       C1050   1.474       .  S
O722       Cr731   1.999       .  S
O723        C724   1.256       .  A
C724        O725   1.265       .  A
C724       C1243   1.470       .  S
O725       Cr732   2.009       .  S
O726       Cr732   1.959       .  S
O726        C727   1.260       .  A
C727        O728   1.273       .  A
C727       C1060   1.473       .  S
O728       Cr733   2.042       .  S
O729       Cr733   1.982       .  S
O729        C730   1.263       .  A
C730       C1040   1.484       .  S
Cr732       O734   1.766       .  S
Cr733       O734   1.773       .  S
O735       Cr753   1.956       .  S
O735        C743   1.257       .  A
O736       Cr753   1.998       .  S
O736        C737   1.266       .  A
C737        O738   1.260       .  A
C737       C1143   1.469       .  S
O738       Cr754   1.977       .  S
O739       Cr754   2.012       .  S
O739        C740   1.266       .  A
C740        O741   1.260       .  A
C740       C1013   1.484       .  S
O741       Cr755   1.972       .  S
O742       Cr755   2.041       .  S
O742        C743   1.273       .  A
C743       C1063   1.471       .  S
O744       Cr753   2.002       .  S
O744        C752   1.263       .  A
O745       Cr753   1.975       .  S
O745        C746   1.259       .  A
C746        O747   1.266       .  A
C746       C1183   1.476       .  S
O747       Cr754   2.007       .  S
O748       Cr754   1.959       .  S
O748        C749   1.257       .  A
C749        O750   1.271       .  A
C749       C1053   1.473       .  S
O750       Cr755   2.036       .  S
O751       Cr755   1.974       .  S
O751        C752   1.258       .  A
C752       C1023   1.470       .  S
Cr753       O756   1.764       .  S
Cr754       O756   1.762       .  S
Cr755       O756   1.767       .  S
O757       Cr775   1.951       .  S
O757        C765   1.257       .  A
O758       Cr775   2.011       .  S
O758        C759   1.267       .  A
C759        O760   1.260       .  A
C759       C1003   1.481       .  S
O760       Cr776   1.984       .  S
O761       Cr776   2.001       .  S
O761        C762   1.262       .  A
C762        O763   1.259       .  A
C762       C1020   1.465       .  S
O763       Cr777   1.978       .  S
O764       Cr777   2.041       .  S
O764        C765   1.272       .  A
C765        C983   1.472       .  S
O766       Cr775   2.011       .  S
O766        C774   1.266       .  A
O767       Cr775   1.980       .  S
O767        C768   1.261       .  A
C768        O769   1.267       .  A
C768        C990   1.473       .  S
O769       Cr776   2.004       .  S
O770       Cr776   1.955       .  S
O770        C771   1.258       .  A
C771        O772   1.273       .  A
C771        C973   1.478       .  S
O772       Cr777   2.046       .  S
O773       Cr777   1.981       .  S
O773        C774   1.262       .  A
C774       C1103   1.482       .  S
Cr775       O778   1.761       .  S
Cr776       O778   1.763       .  S
Cr777       O778   1.772       .  S
O779       Cr797   1.954       .  S
O779        C787   1.259       .  A
O780       Cr797   2.011       .  S
O780        C781   1.267       .  A
C781        C950   1.471       .  S
O782       Cr798   1.981       .  S
O783       Cr798   2.003       .  S
O783        C784   1.263       .  A
C784        O785   1.258       .  A
C784       C1070   1.470       .  S
O785       Cr799   1.970       .  S
O786        C787   1.272       .  A
C787        C980   1.471       .  S
O788       Cr797   2.001       .  S
O789        C790   1.258       .  A
C790        O791   1.266       .  A
C790        C960   1.476       .  S
O791       Cr798   2.013       .  S
O792       Cr798   1.959       .  S
O792        C793   1.260       .  A
C793        O794   1.272       .  A
C793        C970   1.479       .  S
O794       Cr799   2.038       .  S
O795       Cr799   1.971       .  S
O795        C796   1.259       .  A
C796       C1043   1.481       .  S
Cr798       O800   1.767       .  S
Cr799       O800   1.775       .  S
O801       Cr819   1.959       .  S
O801        C809   1.258       .  A
O802       Cr819   1.989       .  S
O802        C803   1.262       .  A
C803        O804   1.262       .  A
C803        C953   1.474       .  S
O804       Cr820   1.987       .  S
O805       Cr820   2.013       .  S
O805        C806   1.266       .  A
C806        O807   1.260       .  A
C806       C1200   1.480       .  S
O807       Cr821   1.973       .  S
O808       Cr821   2.033       .  S
O808        C809   1.271       .  A
O810       Cr819   2.006       .  S
O810        C818   1.262       .  A
O811       Cr819   1.986       .  S
O811        C812   1.263       .  A
C812        O813   1.266       .  A
C812        C940   1.475       .  S
O813       Cr820   1.999       .  S
O814       Cr820   1.959       .  S
O814        C815   1.257       .  A
C815        O816   1.270       .  A
C815        C933   1.473       .  S
O816       Cr821   2.036       .  S
O817       Cr821   1.978       .  S
O817        C818   1.261       .  A
C818       C1033   1.470       .  S
Cr819       O822   1.764       .  S
Cr820       O822   1.763       .  S
Cr821       O822   1.769       .  S
O823       Cr841   1.956       .  S
O823        C831   1.259       .  A
O824       Cr841   1.996       .  S
O824        C825   1.263       .  A
C825        O826   1.259       .  A
C825        C910   1.476       .  S
O826       Cr842   1.980       .  S
O827       Cr842   2.002       .  S
O827        C828   1.264       .  A
C828        O829   1.261       .  A
C828       C1010   1.465       .  S
O829       Cr843   1.978       .  S
O830       Cr843   2.044       .  S
O830        C831   1.273       .  A
C831        C920   1.477       .  S
O832       Cr841   1.995       .  S
O832        C840   1.260       .  A
O833       Cr841   1.973       .  S
O833        C834   1.259       .  A
C834        O835   1.269       .  A
C834        C993   1.477       .  S
O835       Cr842   2.016       .  S
O836       Cr842   1.961       .  S
O836        C837   1.259       .  A
C837        O838   1.270       .  A
C837        C930   1.473       .  S
O838       Cr843   2.033       .  S
O839       Cr843   1.983       .  S
O839        C840   1.261       .  A
C840       C1163   1.471       .  S
Cr841       O844   1.766       .  S
Cr842       O844   1.768       .  S
Cr843       O844   1.775       .  S
O845       Cr863   1.954       .  S
O845        C853   1.258       .  A
O846       Cr863   2.005       .  S
O846        C847   1.266       .  A
C847        O848   1.259       .  A
C847        C943   1.472       .  S
O848       Cr864   1.980       .  S
O849       Cr864   2.011       .  S
O849        C850   1.265       .  A
C850        O851   1.260       .  A
C850       C1110   1.475       .  S
O851       Cr865   1.978       .  S
O852       Cr865   2.036       .  S
O852        C853   1.271       .  A
C853        C900   1.472       .  S
O854       Cr863   2.007       .  S
O854        C862   1.264       .  A
O855       Cr863   1.986       .  S
O855        C856   1.262       .  A
C856        O857   1.269       .  A
C856       C1000   1.478       .  S
O857       Cr864   2.011       .  S
O858       Cr864   1.952       .  S
O858        C859   1.255       .  A
C859        O860   1.271       .  A
C859        C890   1.471       .  S
O860       Cr865   2.040       .  S
O861       Cr865   1.976       .  S
O861        C862   1.260       .  A
C862       C1190   1.468       .  S
Cr863       O866   1.760       .  S
Cr864       O866   1.758       .  S
Cr865       O866   1.770       .  S
O867       Cr885   1.959       .  S
O867        C875   1.258       .  A
O868       Cr885   2.008       .  S
O868        C869   1.268       .  A
C869        O870   1.259       .  A
C869        C913   1.472       .  S
O870       Cr886   1.976       .  S
O871       Cr886   1.999       .  S
O871        C872   1.261       .  A
C872        O873   1.260       .  A
C872       C1080   1.476       .  S
O873       Cr887   1.983       .  S
O874       Cr887   2.034       .  S
O874        C875   1.270       .  A
C875        C893   1.474       .  S
O876       Cr885   2.009       .  S
O876        C884   1.265       .  A
O877       Cr885   1.980       .  S
O877        C878   1.260       .  A
C878        O879   1.265       .  A
C878        C963   1.478       .  S
O879       Cr886   2.006       .  S
O880       Cr886   1.952       .  S
O880        C881   1.258       .  A
C881        O882   1.273       .  A
C881        C903   1.471       .  S
O882       Cr887   2.042       .  S
O883       Cr887   1.971       .  S
O883        C884   1.260       .  A
C884       C1153   1.474       .  S
Cr885       O888   1.764       .  S
Cr886       O888   1.766       .  S
Cr887       O888   1.774       .  S
C889        C890   1.404       .  A
C889        C894   1.409       .  A
C889        H896   1.083       .  S
C890        C891   1.405       .  A
C891        C892   1.390       .  A
C891        F898   1.359       .  S
C892        C893   1.400       .  A
C892        H897   1.084       .  S
C893        C894   1.410       .  A
C894        F895   1.357       .  S
C899        C900   1.401       .  A
C899        C904   1.388       .  A
C899        H906   1.084       .  S
C900        C901   1.409       .  A
C901        C902   1.407       .  A
C901        F908   1.357       .  S
C909        C910   1.407       .  A
C909        C914   1.403       .  A
C909        H916   1.082       .  S
C910        C911   1.408       .  A
C911        C912   1.388       .  A
C911        F918   1.358       .  S
C912        C913   1.401       .  A
C912        H917   1.083       .  S
C913        C914   1.407       .  A
C914        F915   1.357       .  S
C919        C920   1.405       .  A
C919        C924   1.411       .  A
C919        H926   1.083       .  S
C920        C921   1.405       .  A
C921        C922   1.390       .  A
C921        F928   1.358       .  S
C922        C923   1.402       .  A
C922        H927   1.084       .  S
C923        C924   1.411       .  A
C924        F925   1.357       .  S
C929        C930   1.404       .  A
C929        C934   1.407       .  A
C929        H936   1.083       .  S
C930        C931   1.405       .  A
C931        C932   1.394       .  A
C931        F938   1.358       .  S
C932        C933   1.401       .  A
C932        H937   1.084       .  S
C933        C934   1.409       .  A
C934        F935   1.357       .  S
C939        C940   1.406       .  A
C939        C944   1.405       .  A
C939        H946   1.082       .  S
C940        C941   1.408       .  A
C941        C942   1.388       .  A
C941        F948   1.358       .  S
C942        C943   1.400       .  A
C942        H947   1.083       .  S
C943        C944   1.408       .  A
C944        F945   1.357       .  S
C949        H956   1.083       .  S
C950        C951   1.408       .  A
C951        C952   1.402       .  A
C951        F958   1.357       .  S
C952        C953   1.404       .  A
C952        H957   1.083       .  S
C953        C954   1.410       .  A
C959        C960   1.405       .  A
C959        C964   1.401       .  A
C959        H966   1.083       .  S
C960        C961   1.407       .  A
C961        C962   1.394       .  A
C961        F968   1.358       .  S
C962        C963   1.405       .  A
C962        H967   1.083       .  S
C963        C964   1.407       .  A
C964        F965   1.357       .  S
C969        C970   1.400       .  A
C969        C974   1.389       .  A
C969        H976   1.084       .  S
C970        C971   1.411       .  A
C971        C972   1.412       .  A
C971        F978   1.357       .  S
C972        C973   1.406       .  A
C972        H977   1.083       .  S
C973        C974   1.406       .  A
C974        F975   1.358       .  S
C979        C980   1.401       .  A
C979        C984   1.390       .  A
C979        H986   1.084       .  S
C980        C981   1.405       .  A
C981        C982   1.408       .  A
C981        F988   1.357       .  S
C982        C983   1.408       .  A
C982        H987   1.083       .  S
C983        C984   1.404       .  A
C984        F985   1.359       .  S
C989        C990   1.404       .  A
C989        C994   1.391       .  A
C989        H996   1.084       .  S
C990        C991   1.405       .  A
C991        C992   1.402       .  A
C991        F998   1.357       .  S
C992        C993   1.407       .  A
C992        H997   1.083       .  S
C993        C994   1.407       .  A
C994        F995   1.358       .  S
C999       C1000   1.402       .  A
C999       C1004   1.392       .  A
C999       H1006   1.084       .  S
C1000      C1001   1.408       .  A
C1001      C1002   1.406       .  A
C1001      F1008   1.357       .  S
C1002      C1003   1.408       .  A
C1002      H1007   1.083       .  S
C1003      C1004   1.407       .  A
C1004      F1005   1.358       .  S
C1009      C1010   1.399       .  A
C1009      C1014   1.396       .  A
C1009      H1016   1.084       .  S
C1010      C1011   1.401       .  A
C1011      C1012   1.402       .  A
C1011      F1018   1.357       .  S
C1012      C1013   1.410       .  A
C1012      H1017   1.083       .  S
C1013      C1014   1.410       .  A
C1014      F1015   1.357       .  S
C1019      C1020   1.403       .  A
C1019      C1024   1.395   1_545  A
C1019      H1026   1.085       .  S
C1020      C1021   1.402       .  A
C1021      C1022   1.396   1_545  A
C1021      F1028   1.358       .  S
C1022      C1023   1.405       .  A
C1022      H1027   1.084       .  S
C1023      C1024   1.406       .  A
C1024      F1025   1.358       .  S
C1029      C1030   1.405       .  A
C1029      C1034   1.394       .  A
C1029      H1036   1.084       .  S
C1030      C1031   1.406       .  A
C1031      C1032   1.401       .  A
C1031      F1038   1.358       .  S
C1032      C1033   1.406       .  A
C1032      H1037   1.084       .  S
C1033      C1034   1.400       .  A
C1034      F1035   1.357       .  S
C1039      C1040   1.405       .  A
C1039      H1046   1.083       .  S
C1040      C1041   1.412       .  A
C1041      F1048   1.357       .  S
C1042      C1043   1.406       .  A
C1042      H1047   1.083       .  S
C1043      C1044   1.410   1_556  A
C1044      F1045   1.357       .  S
C1049      C1050   1.403       .  A
C1049      C1054   1.393       .  A
C1049      H1056   1.085       .  S
C1050      C1051   1.405       .  A
C1051      C1052   1.406       .  A
C1051      F1058   1.357       .  S
C1052      C1053   1.407       .  A
C1052      H1057   1.084       .  S
C1053      C1054   1.404       .  A
C1054      F1055   1.358       .  S
C1059      C1060   1.407       .  A
C1059      C1064   1.407       .  A
C1059      H1066   1.082       .  S
C1060      C1061   1.402       .  A
C1061      C1062   1.394       .  A
C1061      F1068   1.358       .  S
C1062      C1063   1.403       .  A
C1062      H1067   1.083       .  S
C1063      C1064   1.405       .  A
C1064      F1065   1.357       .  S
C1069      C1070   1.405       .  A
C1069      C1074   1.400   1_655  A
C1069      H1076   1.083       .  S
C1070      C1071   1.406       .  A
C1071      C1072   1.394   1_655  A
C1071      F1078   1.358       .  S
C1072      C1073   1.401       .  A
C1072      H1077   1.084       .  S
C1073      C1074   1.404       .  A
C1074      F1075   1.357       .  S
C1079      C1080   1.401       .  A
C1079      C1084   1.396       .  A
C1079      H1086   1.085       .  S
C1080      C1081   1.412       .  A
C1081      C1082   1.397       .  A
C1081      F1088   1.356       .  S
C1082      C1083   1.398       .  A
C1082      H1087   1.085       .  S
C1083      C1084   1.407       .  A
C1084      F1085   1.357       .  S
C1089      C1090   1.406       .  A
C1089      C1094   1.392       .  A
C1089      H1096   1.084       .  S
C1090      C1091   1.411       .  A
C1091      C1092   1.402       .  A
C1091      F1098   1.357   1_556  S
C1092      C1093   1.402       .  A
C1092      H1097   1.084       .  S
C1093      C1094   1.404       .  A
C1094      F1095   1.358       .  S
C1099      C1100   1.404       .  A
C1099      C1104   1.398   1_455  A
C1099      H1106   1.083       .  S
C1100      C1101   1.403       .  A
C1101      C1102   1.400   1_455  A
C1101      F1108   1.358       .  S
C1102      C1103   1.409       .  A
C1102      H1107   1.083       .  S
C1103      C1104   1.406       .  A
C1104      F1105   1.357       .  S
C1109      C1110   1.402       .  A
C1109      C1114   1.398       .  A
C1109      H1116   1.085       .  S
C1110      C1111   1.408       .  A
C1111      C1112   1.399       .  A
C1111      F1118   1.357       .  S
C1112      C1113   1.402       .  A
C1112      H1117   1.085       .  S
C1113      C1114   1.407       .  A
C1114      F1115   1.357       .  S
C1119      C1120   1.407       .  A
C1119      C1124   1.407       .  A
C1119      H1126   1.083       .  S
C1120      C1121   1.402       .  A
C1121      C1122   1.393       .  A
C1121      F1128   1.358       .  S
C1122      C1123   1.402       .  A
C1122      H1127   1.084       .  S
C1123      C1124   1.405       .  A
C1124      F1125   1.357       .  S
C1129      C1130   1.403       .  A
C1129      C1134   1.406       .  A
C1129      H1136   1.084       .  S
C1130      C1131   1.405       .  A
C1131      C1132   1.390       .  A
C1131      F1138   1.358       .  S
C1132      C1133   1.399       .  A
C1132      H1137   1.084       .  S
C1133      C1134   1.409       .  A
C1134      F1135   1.357       .  S
C1139      C1140   1.407       .  A
C1139      C1144   1.401       .  A
C1139      H1146   1.084       .  S
C1140      C1141   1.405       .  A
C1141      C1142   1.387       .  A
C1141      F1148   1.358       .  S
C1142      C1143   1.402       .  A
C1142      H1147   1.084       .  S
C1143      C1144   1.405       .  A
C1144      F1145   1.357       .  S
C1149      C1150   1.407       .  A
C1149      C1154   1.404   1_565  A
C1149      H1156   1.083       .  S
C1150      C1151   1.405       .  A
C1151      C1152   1.395   1_565  A
C1151      F1158   1.358       .  S
C1152      C1153   1.402       .  A
C1152      H1157   1.083       .  S
C1153      C1154   1.406       .  A
C1154      F1155   1.357       .  S
C1159      C1160   1.400       .  A
C1159      C1164   1.397   1_455  A
C1159      H1166   1.084       .  S
C1160      C1161   1.409       .  A
C1161      C1162   1.394   1_455  A
C1161      F1168   1.356       .  S
C1162      C1163   1.399       .  A
C1162      H1167   1.085       .  S
C1163      C1164   1.410       .  A
C1164      F1165   1.357       .  S
C1169      C1170   1.400       .  A
C1169      C1174   1.390       .  A
C1169      H1176   1.085       .  S
C1170      C1171   1.407       .  A
C1171      C1172   1.402       .  A
C1171      F1178   1.357       .  S
C1172      C1173   1.407       .  A
C1172      H1177   1.084       .  S
C1173      C1174   1.409       .  A
C1174      F1175   1.358       .  S
C1179      C1180   1.401       .  A
C1179      C1184   1.390       .  A
C1179      H1186   1.084       .  S
C1180      C1181   1.403       .  A
C1181      C1182   1.400       .  A
C1181      F1188   1.357       .  S
C1182      C1183   1.408       .  A
C1182      H1187   1.083       .  S
C1183      C1184   1.409       .  A
C1184      F1185   1.358       .  S
C1189      C1190   1.405       .  A
C1189      C1194   1.398   1_545  A
C1189      H1196   1.083       .  S
C1190      C1191   1.401       .  A
C1191      C1192   1.395   1_545  A
C1191      F1198   1.357       .  S
C1192      C1193   1.406       .  A
C1192      H1197   1.083       .  S
C1193      C1194   1.406       .  A
C1194      F1195   1.358       .  S
C1199      C1200   1.404       .  A
C1199      C1204   1.395   1_655  A
C1199      H1206   1.085       .  S
C1200      C1201   1.412       .  A
C1201      C1202   1.401   1_655  A
C1201      F1208   1.358       .  S
C1202      C1203   1.402       .  A
C1202      H1207   1.085       .  S
C1203      C1204   1.403       .  A
C1204      F1205   1.358       .  S
C1209      C1210   1.403       .  A
C1209      C1214   1.392       .  A
C1209      H1216   1.084       .  S
C1210      C1211   1.406       .  A
C1211      C1212   1.411       .  A
C1211      F1218   1.357       .  S
C1219      C1220   1.407       .  A
C1219      C1224   1.406       .  A
C1219      H1226   1.084       .  S
C1220      C1221   1.401       .  A
C1221      C1222   1.391       .  A
C1221      F1228   1.358       .  S
C1222      C1223   1.402       .  A
C1222      H1227   1.083       .  S
C1223      C1224   1.404       .  A
C1224      F1225   1.357       .  S
C1229      C1230   1.404       .  A
C1229      C1234   1.393       .  A
C1229      H1236   1.082       .  S
C1230      C1231   1.409       .  A
C1231      C1232   1.404       .  A
C1231      F1238   1.357       .  S
C1232      C1233   1.405       .  A
C1232      H1237   1.081       .  S
C1233      C1234   1.408       .  A
C1234      F1235   1.359       .  S
C1239      C1240   1.407       .  A
C1239      C1244   1.401       .  A
C1239      H1246   1.083       .  S
C1240      C1241   1.410       .  A
C1241      C1242   1.391       .  A
C1241      F1248   1.358       .  S
C1242      C1243   1.400       .  A
C1242      H1247   1.084       .  S
C1243      C1244   1.405       .  A
C1244      F1245   1.357       .  S
