geometry optimzed in LAMMPS
_audit_creation_date              2020-12-01 
_audit_creation_method            'lammps2cif' 
_symmetry_space_group_name_H-M    'P1' 
_symmetry_Int_Tables_number       1 
_symmetry_cell_setting            triclinic 
loop_ 
_symmetry_equiv_pos_as_xyz 
  x,y,z 
_cell_length_a                    34.58448733 
_cell_length_b                    33.60032861872425 
_cell_length_c                    51.53277438033281 
_cell_angle_alpha                 90.16207952322193 
_cell_angle_beta                  95.24937188205666 
_cell_angle_gamma                 120.99995303492206 
loop_ 
_atom_site_label 
_atom_site_type_symbol 
_atom_site_fract_x 
_atom_site_fract_y 
_atom_site_fract_z 
_atom_site_charge 
O1          O  0.98314942  0.94723788  0.39865243    -0.80800
O2          O  0.04164507  0.97089088  0.28747770    -0.65500
O3          O  0.02995117  0.99686451  0.35801923    -1.12100
C4          C  0.88683968  0.96793661  0.31865213     1.06100
O5          O  0.02265760  0.02212391  0.27741518    -0.78700
O6          O  0.97811438  0.05472658  0.30295418    -0.66300
Ni7        Ni  0.04155213  0.96804304  0.38675149     1.34900
C8          C  0.98956582  0.07363705  0.32595948     0.84800
O9          O  0.09729115  0.99546757  0.33302100    -0.79200
O10         O  0.10061192  0.98764171  0.37668231    -0.89500
C11         C  0.03745232  0.99655035  0.27061283     0.84400
O12         O  0.02043143  0.90750502  0.37103728    -0.67700
O13         O  0.90235957  0.96995723  0.29678825    -0.87000
C14         C  0.01446038  0.89180701  0.34759500     0.85200
C15         C  0.11754630  0.99475708  0.35491319     1.06800
H16         H  0.95587522  0.93554083  0.31393500     0.38600
O17         O  0.97593687  0.96881716  0.31669069    -1.09600
O18         O  0.99346506  0.05221594  0.34560253    -0.66300
Ni19       Ni  0.96980418  0.98596929  0.35057700     1.26300
O20         O  0.01565311  0.91569546  0.32801057    -0.66500
O21         O  0.90970212  0.97438085  0.34089775    -0.78800
C22         C  0.97021385  0.97517199  0.40425159     0.84600
O23         O  0.96554276  0.99895528  0.38635295    -0.66000
Ni24       Ni  0.96268820  0.99552723  0.28767352     1.27400
Ni25       Ni  0.03663880  0.98159368  0.32372620     1.26100
H26         H  0.05057047  0.02992528  0.36142843     0.39200
O27         O  0.99677139  0.45251035  0.39052412    -0.80800
O28         O  0.04788058  0.47313601  0.27890382    -0.65500
O29         O  0.04316143  0.50281392  0.34980627    -1.12100
C30         C  0.90673236  0.49190626  0.31518694     1.06100
O31         O  0.03502040  0.52886307  0.26799705    -0.78700
O32         O  0.00579893  0.57342107  0.29806858    -0.66300
Ni33       Ni  0.05412641  0.47224080  0.37794532     1.34900
C34         C  0.01187123  0.58751283  0.32182517     0.84800
O35         O  0.10565493  0.49541365  0.32314372    -0.79200
O36         O  0.11204494  0.49056754  0.36697356    -0.89500
C37         C  0.04476809  0.49874626  0.26170152     0.84400
O38         O  0.03040090  0.41140426  0.36204915    -0.67700
O39         O  0.92245446  0.49830031  0.29309648    -0.87000
C40         C  0.02054829  0.39495722  0.33858379     0.85200
C41         C  0.12752277  0.49669530  0.34481941     1.06800
H42         H  0.96535733  0.44649916  0.30519057     0.38600
O43         O  0.98768575  0.47907202  0.30899797    -1.09600
O44         O  0.00852246  0.56145544  0.34061966    -0.66300
Ni45       Ni  0.98418179  0.49487429  0.34391690     1.26300
O46         O  0.02102560  0.41923831  0.31930180    -0.66500
O47         O  0.92534530  0.48631319  0.33627286    -0.78800
C48         C  0.98611285  0.48167599  0.39716099     0.84600
O49         O  0.98272063  0.50727881  0.38011630    -0.66000
Ni50       Ni  0.97887752  0.51234867  0.28150122     1.27400
Ni51       Ni  0.04641069  0.48609486  0.31513031     1.26100
H52         H  0.06508470  0.53563851  0.35304498     0.39200
O53         O  0.53806198  0.99943963  0.40404480    -0.80800
O54         O  0.52236478  0.97472762  0.28420546    -0.65500
O55         O  0.55570654  0.03135803  0.35348856    -1.12100
C56         C  0.41335583  0.01935400  0.34081260     1.06100
O57         O  0.50652599  0.02836250  0.27277064    -0.78700
O58         O  0.50235680  0.08922093  0.30609549    -0.66300
Ni59       Ni  0.58336215  0.01282756  0.38045788     1.34900
C60         C  0.51605658  0.10979039  0.32870106     0.84800
O61         O  0.59770561  0.00680294  0.31784555    -0.79200
O62         O  0.63111474  0.02600275  0.35939113    -0.89500
C63         C  0.51244582  0.99538204  0.26652674     0.84400
O64         O  0.55655461  0.94797062  0.36992183    -0.67700
O65         O  0.41958432  0.02174438  0.31668728    -0.87000
C66         C  0.53381221  0.92247527  0.34931385     0.85200
C67         C  0.63051647  0.01671253  0.33525076     1.06800
H68         H  0.46013678  0.96485915  0.32260448     0.38600
O69         O  0.48359470  0.99725973  0.32242488    -1.09600
O70         O  0.51831084  0.08858660  0.34886742    -0.66300
Ni71       Ni  0.49784754  0.02411044  0.35714744     1.26300
O72         O  0.51837475  0.93762586  0.33069558    -0.66500
O73         O  0.43898843  0.01549230  0.35882669    -0.78800
C74         C  0.52543671  0.02741647  0.41046935     0.84600
O75         O  0.51381866  0.04703816  0.39299819    -0.66000
Ni76       Ni  0.46394369  0.02425822  0.29586313     1.27400
Ni77       Ni  0.54020012  0.00113688  0.31952040     1.26100
H78         H  0.57689743  0.06396600  0.35163047     0.39200
O79         O  0.53722861  0.48901584  0.39291196    -0.80800
O80         O  0.55070244  0.49515060  0.27685324    -0.65500
O81         O  0.56478188  0.53754633  0.34778584    -1.12100
C82         C  0.42117596  0.51501541  0.32838337     1.06100
O83         O  0.52740129  0.54256115  0.26332330    -0.78700
O84         O  0.52295746  0.59886477  0.30172478    -0.66300
Ni85       Ni  0.59061114  0.51755181  0.37478235     1.34900
C86         C  0.52626010  0.61296232  0.32529356     0.84800
O87         O  0.62025206  0.52828119  0.31537280    -0.79200
O88         O  0.64507189  0.54472487  0.35819943    -0.89500
C89         C  0.54049367  0.51421408  0.25832769     0.84400
O90         O  0.57472819  0.45766771  0.36032554    -0.67700
O91         O  0.43577917  0.53009561  0.30641017    -0.87000
C92         C  0.55343979  0.43405329  0.33912076     0.85200
C93         C  0.65124086  0.54094760  0.33451657     1.06800
H94         H  0.47763455  0.47128323  0.30877799     0.38600
O95         O  0.49928794  0.50421797  0.31184885    -1.09600
O96         O  0.51877040  0.58573152  0.34404173    -0.66300
Ni97       Ni  0.50334351  0.52104597  0.34786927     1.26300
O98         O  0.53862868  0.45027737  0.32085864    -0.66500
O99         O  0.44148509  0.50326599  0.34569937    -0.78800
C100        C  0.51883857  0.51044829  0.40090329     0.84600
O101        O  0.50889070  0.53363537  0.38502319    -0.66000
Ni102      Ni  0.48328181  0.53621581  0.28664457     1.27400
Ni103      Ni  0.55917877  0.51515114  0.31291090     1.26100
H104        H  0.58345811  0.57103932  0.34832597     0.39200
O105        O  0.07323883  0.02691260  0.06792832    -0.80800
O106        O  0.05264122  0.03185881  0.95045212    -0.65500
O107        O  0.02109326  0.00506403  0.01993747    -1.12100
C108        C  0.04893275  0.88282882  0.00647938     1.06100
O109        O  0.00543900  0.95808358  0.93861400    -0.78700
O110        O  0.96393984  0.88885127  0.97222979    -0.66300
Ni111      Ni  0.04433421  0.05326409  0.04649435     1.34900
C112        C  0.94839201  0.88189531  0.99430263     0.84800
O113        O  0.02288850  0.06876079  0.98459468    -0.79200
O114        O  0.01622859  0.08159931  0.02660233    -0.89500
C115        C  0.03117023  0.99979816  0.93250516     0.84400
O116        O  0.10115652  0.09831467  0.03445710    -0.67700
O117        O  0.04084992  0.88691086  0.98224684    -0.87000
C118        C  0.11992044  0.10166440  0.01383212     0.85200
C119        C  0.01355114  0.08842529  0.00226168     1.06800
H120        H  0.08365156  0.98600230  0.98897536     0.38600
O121        O  0.05120548  0.97233554  0.98856699    -1.09600
O122        O  0.97212725  0.90784414  0.01481392    -0.66300
Ni123      Ni  0.03602055  0.95766072  0.02340182     1.26300
O124        O  0.10152373  0.06917559  0.99572918    -0.66500
O125        O  0.05102830  0.90985911  0.02483848    -0.78800
C126        C  0.05134555  0.98610487  0.07610133     0.84600
O127        O  0.02636620  0.95126135  0.05990132    -0.66000
Ni128      Ni  0.02389192  0.92418592  0.96169979     1.27400
Ni129      Ni  0.03804315  0.02112226  0.98576587     1.26100
H130        H  0.98843745  0.99008983  0.01871455     0.39200
O131        O  0.97907363  0.49847526  0.93507516    -0.80800
O132        O  0.04185002  0.50989355  0.05136623    -0.65500
O133        O  0.02379456  0.48309691  0.97772322    -1.12100
C134        C  0.87796587  0.35994195  0.99566716     1.06100
O135        O  0.01431164  0.43572110  0.05805801    -0.78700
O136        O  0.97723753  0.36883618  0.01989084    -0.66300
Ni137      Ni  0.03887110  0.53051981  0.95378809     1.34900
C138        C  0.98445016  0.36575125  0.99651841     0.84800
O139        O  0.09703157  0.54709929  0.01300574    -0.79200
O140        O  0.09958331  0.56659875  0.97107994    -0.89500
C141        C  0.03369524  0.47769913  0.06678640     0.84400
O142        O  0.02286336  0.56821890  0.97185172    -0.67700
O143        O  0.89629010  0.36480008  0.01903797    -0.87000
C144        C  0.01718234  0.57241891  0.99537727     0.85200
C145        C  0.11788646  0.57247665  0.99460299     1.06800
H146        H  0.95410011  0.46466472  0.01698405     0.38600
O147        O  0.97153387  0.45055066  0.01354867    -1.09600
O148        O  0.97937218  0.38895018  0.97847106    -0.66300
Ni149      Ni  0.96127473  0.43462089  0.97687987     1.26300
O150        O  0.01811190  0.54607177  0.01282135    -0.66500
O151        O  0.89875441  0.38576494  0.97746163    -0.78800
C152        C  0.95977466  0.45718658  0.92525474     0.84600
O153        O  0.95389250  0.42433230  0.93966242    -0.66000
Ni154      Ni  0.95609982  0.40252790  0.03740519     1.27400
Ni155      Ni  0.03430705  0.49887480  0.01419360     1.26100
H156        H  0.04144131  0.46923349  0.97425020     0.39200
O157        O  0.52063148  0.02213878  0.06440832    -0.80800
O158        O  0.48488832  0.98935896  0.93964296    -0.65500
O159        O  0.47562457  0.98627834  0.01358765    -1.12100
C160        C  0.54461083  0.89572547  0.00886160     1.06100
O161        O  0.45521592  0.91363979  0.93716144    -0.78700
O162        O  0.44418246  0.85956718  0.97776642    -0.66300
Ni163      Ni  0.50093555  0.04315513  0.03405176     1.34900
C164        C  0.42758697  0.86016687  0.99861102     0.84800
O165        O  0.45013974  0.02287261  0.97139801    -0.79200
O166        O  0.48264687  0.07112997  0.00712000    -0.89500
C167        C  0.46456651  0.95084613  0.92612992     0.84400
O168        O  0.55916338  0.06853769  0.02228053    -0.67700
O169        O  0.53447335  0.89238319  0.98418812    -0.87000
C170        C  0.56904024  0.07405236  0.99894394     0.85200
C171        C  0.45989424  0.05921006  0.98472668     1.06800
H172        H  0.54448157  0.97915975  0.98247207     0.38600
O173        O  0.51255278  0.95814429  0.98366597    -1.09600
O174        O  0.44618647  0.89467994  0.01522896    -0.66300
Ni175      Ni  0.50476367  0.95147007  0.01986397     1.26300
O176        O  0.54006881  0.04946270  0.97957685    -0.66500
O177        O  0.53455056  0.91703178  0.02488166    -0.78800
C178        C  0.51192799  0.98283693  0.07222808     0.84600
O179        O  0.49788066  0.94794460  0.05639307    -0.66000
Ni180      Ni  0.49550112  0.90492527  0.96168031     1.27400
Ni181      Ni  0.48156827  0.99053110  0.97678266     1.26100
H182        H  0.44380616  0.96746797  0.01601666     0.39200
O183        O  0.58386440  0.49976505  0.05571329    -0.80800
O184        O  0.53813043  0.54702378  0.94753084    -0.65500
O185        O  0.53038281  0.51084434  0.01823798    -1.12100
C186        C  0.50262302  0.36938752  0.97758820     1.06100
O187        O  0.47297300  0.48199612  0.93808058    -0.78700
O188        O  0.43187777  0.40222051  0.96524513    -0.66300
Ni189      Ni  0.57520695  0.54944502  0.04574897     1.34900
C190        C  0.42476364  0.39599121  0.98908388     0.84800
O191        O  0.54218588  0.58944579  0.99374539    -0.79200
O192        O  0.56737429  0.60015482  0.03674679    -0.89500
C193        C  0.50394002  0.52091480  0.93113793     0.84400
O194        O  0.62935394  0.57768997  0.02846124    -0.67700
O195        O  0.49739428  0.38604024  0.95622807    -0.87000
C196        C  0.63614866  0.58626585  0.00476307     0.85200
C197        C  0.55564695  0.61301994  0.01565576     1.06800
H198        H  0.55946167  0.47796847  0.97173854     0.38600
O199        O  0.53052762  0.47261660  0.97599529    -1.09600
O200        O  0.45617881  0.41919272  0.00771241    -0.66300
Ni201      Ni  0.52247034  0.45070984  0.01047448     1.26300
O202        O  0.60383379  0.56604150  0.98611613    -0.66500
O203        O  0.51436180  0.39124918  0.00013135    -0.78800
C204        C  0.55050883  0.46438185  0.06401280     0.84600
O205        O  0.51891228  0.43544888  0.04703623    -0.66000
Ni206      Ni  0.48626429  0.43476581  0.94804722     1.27400
Ni207      Ni  0.53704970  0.53182754  0.98378170     1.26100
H208        H  0.50180805  0.50599406  0.02279482     0.39200
O209        O  0.99698463  0.05156228  0.60327717    -0.80800
O210        O  0.03454967  0.04706174  0.72125767    -0.65500
O211        O  0.99679388  0.00951679  0.64884580    -1.12100
C212        C  0.87206620  0.02915661  0.66640885     1.06100
O213        O  0.96409411  0.99647818  0.72876758    -0.78700
O214        O  0.88660792  0.95259652  0.69468748    -0.66300
Ni215      Ni  0.03714615  0.03614971  0.62292509     1.34900
C216        C  0.88004491  0.93106829  0.67287789     0.84800
O217        O  0.07066855  0.02168725  0.68395899    -0.79200
O218        O  0.07977234  0.02207823  0.64106097    -0.89500
C219        C  0.00564628  0.02401716  0.73714848     0.84400
O220        O  0.07389124  0.09907056  0.63700954    -0.67700
O221        O  0.88709831  0.03261116  0.69044916    -0.87000
C222        C  0.08228423  0.11821627  0.65975940     0.85200
C223        C  0.09160943  0.01967349  0.66502978     1.06800
H224        H  0.97881428  0.07187378  0.68294676     0.38600
O225        O  0.96725735  0.03885303  0.68251906    -1.09600
O226        O  0.90495020  0.95041136  0.65445553    -0.66300
Ni227      Ni  0.94391482  0.01582420  0.64724742     1.26300
O228        O  0.06079960  0.09622949  0.67886546    -0.66500
O229        O  0.89062432  0.02238565  0.64761718    -0.78800
C230        C  0.95640352  0.02138171  0.59450706     0.84600
O231        O  0.92784829  0.99726801  0.61041592    -0.66000
Ni232      Ni  0.92694433  0.01523352  0.70868619     1.27400
Ni233      Ni  0.01904961  0.03055778  0.68436115     1.26100
H234        H  0.98618140  0.97669419  0.64768424     0.39200
O235        O  0.01768450  0.51677708  0.72737678    -0.80800
O236        O  0.00334195  0.52724885  0.60730719    -0.65500
O237        O  0.98963070  0.53902301  0.67903881    -1.12100
C238        C  0.87822875  0.38048852  0.66549304     1.06100
O239        O  0.92935229  0.49141201  0.59733142    -0.78700
O240        O  0.86911654  0.46524368  0.63364747    -0.66300
Ni241      Ni  0.04061155  0.56844183  0.70480185     1.34900
C242        C  0.86773505  0.47895334  0.65636049     0.84800
O243        O  0.03928927  0.59963602  0.64257060    -0.79200
O244        O  0.06643356  0.62251420  0.68469603    -0.89500
C245        C  0.96913262  0.51078359  0.59024953     0.84400
O246        O  0.07908396  0.54934971  0.69156981    -0.67700
O247        O  0.87474645  0.38868569  0.64152402    -0.87000
C248        C  0.08072369  0.53468536  0.66918860     0.85200
C249        C  0.06410054  0.63084235  0.66056545     1.06800
H250        H  0.97183902  0.45304889  0.64479642     0.38600
O251        O  0.95632387  0.47025455  0.64590202    -1.09600
O252        O  0.89654906  0.48478183  0.67564750    -0.66300
Ni253      Ni  0.94779905  0.47496653  0.68150464     1.26300
O254        O  0.05047280  0.52550688  0.65003353    -0.66500
O255        O  0.90726276  0.41050489  0.68283436    -0.78800
C256        C  0.97785202  0.49438419  0.73440859     0.84600
O257        O  0.94378895  0.48171899  0.71770274    -0.66000
Ni258      Ni  0.90404889  0.44139528  0.62069698     1.27400
Ni259      Ni  0.99879823  0.53461611  0.64353917     1.26100
H260        H  0.97376984  0.55582896  0.67985979     0.39200
O261        O  0.47854587  0.95812907  0.72230469    -0.80800
O262        O  0.52946632  0.05508330  0.62149685    -0.65500
O263        O  0.49052931  0.02744452  0.68961304    -1.12100
C264        C  0.35131418  0.91512150  0.64302122     1.06100
O265        O  0.46800114  0.05646321  0.60895120    -0.78700
O266        O  0.39627113  0.03002317  0.63759163    -0.66300
Ni267      Ni  0.52656742  0.01987148  0.71708812     1.34900
C268        C  0.38669283  0.02634694  0.66104351     0.84800
O269        O  0.56890154  0.09479882  0.67053356    -0.79200
O270        O  0.57499376  0.08146484  0.71346034    -0.89500
C271        C  0.50409022  0.05877742  0.60349639     0.84400
O272        O  0.55855771  0.99822085  0.69813052    -0.67700
O273        O  0.36463965  0.94050776  0.62358911    -0.87000
C274        C  0.56521310  0.99874042  0.67418831     0.85200
C275        C  0.58953556  0.10567235  0.69372096     1.06800
H276        H  0.45792152  0.96487064  0.63794364     0.38600
O277        O  0.45374018  0.98931537  0.64433172    -1.09600
O278        O  0.40232086  0.00930055  0.67816659    -0.56700
Ni279      Ni  0.43269007  0.97407038  0.67794227     1.26300
O280        O  0.54174904  0.00626449  0.65651645    -0.66500
O281        O  0.37567363  0.92179891  0.66461697    -0.78800
C282        C  0.44229056  0.95348296  0.72952051     0.84600
O283        O  0.41664856  0.95984726  0.71300245    -0.66000
Ni284      Ni  0.41744855  0.99832716  0.61740052     1.27400
Ni285      Ni  0.51215274  0.04230138  0.65636128     1.26100
H286        H  0.48584280  0.05177516  0.69558519     0.39200
O287        O  0.44843158  0.47790645  0.60294418    -0.80800
O288        O  0.44574445  0.51465321  0.71965097    -0.65500
O289        O  0.46378058  0.53254753  0.64734776    -1.12100
C290        C  0.59166690  0.51367781  0.67298279     1.06100
O291        O  0.51839504  0.56721730  0.72914057    -0.78700
O292        O  0.58493372  0.60383507  0.69652753    -0.66300
Ni293      Ni  0.41475215  0.49886507  0.62050842     1.34900
C294        C  0.58766909  0.61600526  0.67315074     0.84800
O295        O  0.39976851  0.53170690  0.67903779    -0.79200
O296        O  0.37738844  0.51775556  0.63584596    -0.89500
C297        C  0.47935595  0.54036530  0.73645666     0.84400
O298        O  0.38175140  0.43982130  0.63570133    -0.67700
O299        O  0.58758384  0.52445130  0.69605480    -0.87000
C300        C  0.37900142  0.42784302  0.65916612     0.85200
C301        C  0.37242792  0.52725755  0.65893016     1.06800
H302        H  0.49043073  0.47924784  0.68701955     0.38600
O303        O  0.50213593  0.51188943  0.68470495    -1.09600
O304        O  0.55997797  0.58900255  0.65399055    -0.66300
Ni305      Ni  0.51453146  0.52232610  0.64924869     1.26300
O306        O  0.40677649  0.45508428  0.67819851    -0.66500
O307        O  0.56472029  0.51061186  0.65303653    -0.78800
C308        C  0.48703082  0.50569594  0.59537548     0.84600
O309        O  0.52056701  0.52999765  0.61247576    -0.66000
Ni310      Ni  0.55119873  0.54491980  0.71153453     1.27400
Ni311      Ni  0.45125918  0.52180437  0.68282883     1.26100
H312        H  0.47548348  0.56519968  0.64500393     0.39200
C313        C  0.71527430  0.18621191  0.70780157    -0.22400
C314        C  0.71989319  0.22565469  0.69621357     0.09600
C315        C  0.68151465  0.22800190  0.68702099     0.10000
C316        C  0.63859323  0.18869408  0.68778589    -0.17300
C317        C  0.63392091  0.14792892  0.69770714    -0.27700
C318        C  0.67240962  0.14690804  0.70872831     0.18300
C319        C  0.76486559  0.26138906  0.69039907     0.12300
C320        C  0.68601518  0.27131306  0.67564590    -0.12100
H321        H  0.60871445  0.18911337  0.67975281     0.12600
C322        C  0.66896987  0.10376462  0.71971993    -0.22900
H323        H  0.74541103  0.18540894  0.71476200     0.08200
C324        C  0.79445576  0.29803707  0.70856100     0.04600
C325        C  0.83399537  0.33480977  0.70042008    -0.20100
C326        C  0.84379268  0.33557784  0.67439649    -0.12400
C327        C  0.81618675  0.29591651  0.65712623     0.13300
C328        C  0.77677594  0.25918707  0.66548227    -0.22800
C329        C  0.78326608  0.29913375  0.73601727    -0.05900
H330        H  0.85547597  0.36447251  0.71402045     0.14800
C331        C  0.82736299  0.29175335  0.62999766    -0.16100
H332        H  0.75391963  0.22949577  0.65214639     0.09100
H333        H  0.64911333  0.09395741  0.73676734     0.07000
H334        H  0.70288047  0.10914066  0.72640894     0.08200
H335        H  0.65235482  0.07478854  0.70451723     0.07200
H336        H  0.70477894  0.27955421  0.65817334     0.02100
H337        H  0.70471700  0.30098495  0.69041115     0.02600
H338        H  0.65236557  0.26710968  0.66966517     0.06100
H339        H  0.81042772  0.33053679  0.74768476     0.05100
H340        H  0.77937169  0.26809147  0.74582800    -0.00700
H341        H  0.75114035  0.29917189  0.73567224     0.00800
H342        H  0.80450218  0.25616424  0.62079066     0.04400
H343        H  0.86268501  0.29916065  0.63089456     0.06400
H344        H  0.82315565  0.31596055  0.61714393     0.07300
C345        C  0.22319949  0.84609236  0.63580899    -0.22400
C346        C  0.21560353  0.80276261  0.64266420     0.09600
C347        C  0.25211348  0.79538664  0.64784414     0.10000
C348        C  0.29627193  0.83268457  0.64703167    -0.17300
C349        C  0.30429509  0.87663568  0.64082384    -0.27700
C350        C  0.26727964  0.88352426  0.63487247     0.18300
C351        C  0.16935980  0.76547074  0.64551603     0.12300
C352        C  0.24441058  0.74835484  0.65458181    -0.12100
H353        H  0.32471975  0.82775540  0.65157588     0.12600
C354        C  0.27221205  0.92968705  0.62869196    -0.22900
H355        H  0.19461169  0.85101332  0.63193690     0.08200
C356        C  0.15316484  0.75720977  0.67013055     0.04600
C357        C  0.11528454  0.71410110  0.67381113    -0.20100
C358        C  0.09395111  0.67920223  0.65342907    -0.12400
C359        C  0.10638925  0.69075766  0.62773701     0.13300
C360        C  0.14450466  0.73398722  0.62425563    -0.22800
C361        C  0.17745878  0.79280568  0.69275426    -0.05900
H362        H  0.10436616  0.70668576  0.69318136     0.14800
C363        C  0.08185811  0.65776005  0.60404303    -0.16100
H364        H  0.15701107  0.74197203  0.60526575     0.09100
H365        H  0.25568216  0.93913408  0.64298897     0.07000
H366        H  0.25515857  0.92679327  0.60885192     0.08200
H367        H  0.30764843  0.95859198  0.62934377     0.07200
H368        H  0.22298101  0.72231111  0.63830381     0.02100
H369        H  0.22710679  0.73740470  0.67259606     0.02600
H370        H  0.27682001  0.74880922  0.65798393     0.06100
H371        H  0.16007541  0.78061556  0.71069065     0.05100
H372        H  0.17861501  0.82550379  0.68776373    -0.00700
H373        H  0.21264494  0.80015646  0.69711203     0.00800
H374        H  0.09587350  0.67407349  0.58577769     0.04400
H375        H  0.04545603  0.64696081  0.60202837     0.06400
H376        H  0.08539643  0.62695182  0.60571625     0.07300
C377        C  0.79494326  0.53223536  0.66917126    -0.22400
C378        C  0.75064103  0.49293458  0.66532865     0.09600
C379        C  0.74576748  0.44925924  0.65944660     0.10000
C380        C  0.78454937  0.44617539  0.65691972    -0.17300
C381        C  0.82878816  0.48546200  0.66049674    -0.27700
C382        C  0.83385759  0.52908291  0.66692594     0.18300
C383        C  0.70995489  0.49809504  0.66739839     0.12300
C384        C  0.69959659  0.40553579  0.65629717    -0.12100
H385        H  0.78030223  0.41258482  0.65219625     0.12600
C386        C  0.87961228  0.57323213  0.67072196    -0.22900
H387        H  0.79924960  0.56592288  0.67362917     0.08200
C388        C  0.69928329  0.50782471  0.69154333     0.04600
C389        C  0.66062155  0.51178270  0.69253024    -0.20100
C390        C  0.63120242  0.50633074  0.66998171    -0.12400
C391        C  0.64221178  0.49650357  0.64569440     0.13300
C392        C  0.68105771  0.49257773  0.64483085    -0.22800
C393        C  0.72829686  0.51325128  0.71652163    -0.05900
H394        H  0.65365325  0.51952093  0.71135252     0.14800
C395        C  0.61375373  0.49034508  0.62038698    -0.16100
H396        H  0.68918046  0.48532360  0.62624229     0.09100
H397        H  0.88544250  0.58874332  0.69079333     0.07000
H398        H  0.88057029  0.59838399  0.65648200     0.08200
H399        H  0.90786440  0.56764516  0.66788047     0.07200
H400        H  0.67830023  0.40760106  0.63953191     0.02100
H401        H  0.68285642  0.40108297  0.67434900     0.02600
H402        H  0.70177834  0.37417849  0.65266293     0.06100
H403        H  0.71478717  0.51955905  0.73380454     0.05100
H404        H  0.76324780  0.54320513  0.71581282    -0.00700
H405        H  0.72948691  0.48110995  0.71922643     0.00800
H406        H  0.61379005  0.52284058  0.61665426     0.04400
H407        H  0.57851457  0.46099924  0.62127099     0.06400
H408        H  0.62705839  0.48245983  0.60353292     0.07300
C409        C  0.19135638  0.55158822  0.64643291    -0.22400
C410        C  0.20246482  0.52689982  0.66457286     0.09600
C411        C  0.17192092  0.50266961  0.68317858     0.10000
C412        C  0.13198792  0.50456904  0.68361364    -0.17300
C413        C  0.12089592  0.52966423  0.66564185    -0.27700
C414        C  0.15158863  0.55376003  0.64684372     0.18300
C415        C  0.24599878  0.52675554  0.66363529     0.12300
C416        C  0.18158010  0.47476429  0.70265345    -0.12100
H417        H  0.10936960  0.48659379  0.69831122     0.12600
C418        C  0.14522611  0.58434119  0.62776217    -0.22900
H419        H  0.21454823  0.57032172  0.63210576     0.08200
C420        C  0.24861031  0.49553353  0.64653001     0.04600
C421        C  0.29007854  0.49702850  0.64581699    -0.20100
C422        C  0.33013568  0.52919946  0.66167528    -0.12400
C423        C  0.32749797  0.56080869  0.67879323     0.13300
C424        C  0.28557371  0.55876749  0.67969360    -0.22800
C425        C  0.20736215  0.46025229  0.62904152    -0.05900
H426        H  0.29103657  0.47229371  0.63274469     0.14800
C427        C  0.36819325  0.59860481  0.69550949    -0.16100
H428        H  0.28400118  0.58315417  0.69272835     0.09100
H429        H  0.14245437  0.57099746  0.60752919     0.07000
H430        H  0.17502181  0.62032737  0.63067976     0.08200
H431        H  0.11480304  0.58630984  0.62998359     0.07200
H432        H  0.21414515  0.49787108  0.71483314     0.02100
H433        H  0.18398675  0.44727959  0.69223336     0.02600
H434        H  0.15443828  0.45768535  0.71580513     0.06100
H435        H  0.21483891  0.43811917  0.61694197     0.05100
H436        H  0.19511337  0.47828317  0.61570402    -0.00700
H437        H  0.18000817  0.43723262  0.64105231     0.00800
H438        H  0.37228066  0.63282102  0.69109289     0.04400
H439        H  0.40031108  0.60076362  0.69214790     0.06400
H440        H  0.36300717  0.59276181  0.71642356     0.07300
C441        C  0.70487676  0.70895933  0.65537995    -0.22400
C442        C  0.71187070  0.74919446  0.66845398     0.09600
C443        C  0.67542651  0.74659966  0.68046054     0.10000
C444        C  0.63443668  0.70330307  0.68088601    -0.17300
C445        C  0.62778410  0.66260130  0.66839368    -0.27700
C446        C  0.66349855  0.66603366  0.65508503     0.18300
C447        C  0.75717915  0.79369814  0.66889853     0.12300
C448        C  0.67946589  0.78976359  0.69236012    -0.12100
H449        H  0.60752436  0.70114133  0.69118516     0.12600
C450        C  0.65907344  0.62388098  0.64162571    -0.22900
H451        H  0.73239107  0.71095425  0.64578882     0.08200
C452        C  0.79011152  0.80998506  0.69090941     0.04600
C453        C  0.83068587  0.85362816  0.69093869    -0.20100
C454        C  0.84017301  0.88179015  0.66935162    -0.12400
C455        C  0.80759637  0.86424028  0.64684421     0.13300
C456        C  0.76723093  0.82042594  0.64691085    -0.22800
C457        C  0.78274227  0.78111251  0.71433354    -0.05900
H458        H  0.85496705  0.86630256  0.70825303     0.14800
C459        C  0.81190607  0.89106561  0.62278763    -0.16100
H460        H  0.74230906  0.80778929  0.62987886     0.09100
H461        H  0.65443685  0.59801136  0.65615823     0.07000
H462        H  0.68974008  0.63250260  0.63202955     0.08200
H463        H  0.62956054  0.60850174  0.62644437     0.07200
H464        H  0.68635754  0.81533356  0.67718775     0.02100
H465        H  0.70756263  0.80573697  0.70838820     0.02600
H466        H  0.64777635  0.78202280  0.70045379     0.06100
H467        H  0.81189610  0.79862231  0.72975195     0.05100
H468        H  0.77854355  0.74721571  0.70835840    -0.00700
H469        H  0.75192745  0.77466065  0.72293157     0.00800
H470        H  0.81460439  0.87239642  0.60588991     0.04400
H471        H  0.84116780  0.92698841  0.62447837     0.06400
H472        H  0.78106654  0.89334669  0.61854582     0.07300
C473        C  0.17349430  0.24329768  0.64777690    -0.22400
C474        C  0.20879162  0.25162239  0.66703003     0.09600
C475        C  0.19971826  0.21817351  0.68588505     0.10000
C476        C  0.15669602  0.17665049  0.68430590    -0.17300
C477        C  0.12203827  0.16720303  0.66423082    -0.27700
C478        C  0.13046638  0.20196079  0.64620428     0.18300
C479        C  0.25490844  0.29507549  0.66664532     0.12300
C480        C  0.23606872  0.22542863  0.70708877    -0.12100
H481        H  0.15100034  0.15021009  0.69800480     0.12600
C482        C  0.09464997  0.19688613  0.62520071    -0.22900
H483        H  0.17972660  0.26916590  0.63359477     0.08200
C484        C  0.28461508  0.29975244  0.64811713     0.04600
C485        C  0.32597122  0.34237655  0.64704523    -0.20100
C486        C  0.33920412  0.38097424  0.66424182    -0.12400
C487        C  0.30970336  0.37580565  0.68318999     0.13300
C488        C  0.26840750  0.33308693  0.68424126    -0.22800
C489        C  0.27249958  0.25966818  0.62930176    -0.05900
H490        H  0.34769580  0.34593366  0.63223223     0.14800
C491        C  0.31991082  0.41613956  0.70126607    -0.16100
H492        H  0.24565536  0.32981370  0.69833412     0.09100
H493        H  0.10562688  0.19621186  0.60570323     0.07000
H494        H  0.08989784  0.22699040  0.62709700     0.08200
H495        H  0.06117096  0.16502492  0.62645690     0.07200
H496        H  0.24670591  0.25727133  0.71941965     0.02100
H497        H  0.26584987  0.22930878  0.69825286     0.02600
H498        H  0.22395840  0.19565884  0.71989155     0.06100
H499        H  0.29957466  0.26854195  0.61642154     0.05100
H500        H  0.24073609  0.24992218  0.61673628    -0.00700
H501        H  0.26755018  0.22931674  0.64032400     0.00800
H502        H  0.32264526  0.44510973  0.68970590     0.04400
H503        H  0.35215145  0.42809416  0.71379120     0.06400
H504        H  0.29284516  0.40652695  0.71426348     0.07300
C505        C  0.67133115  0.01899533  0.64314954    -0.22400
C506        C  0.69060317  0.00224319  0.66187673     0.09600
C507        C  0.66571873  0.97925722  0.68289018     0.10000
C508        C  0.62347344  0.97546681  0.68531572    -0.17300
C509        C  0.60472400  0.99423813  0.66727183    -0.27700
C510        C  0.62928367  0.01565880  0.64552697     0.18300
C511        C  0.73803992  0.01190086  0.66015600     0.12300
C512        C  0.68428015  0.95935169  0.70308424    -0.12100
H513        H  0.60580120  0.95916498  0.70207245     0.12600
C514        C  0.61329836  0.03781404  0.62533062    -0.22900
H515        H  0.69033149  0.03655236  0.62701179     0.08200
C516        C  0.74719600  0.98372066  0.64444742     0.04600
C517        C  0.79209108  0.99276277  0.64498888    -0.20100
C518        C  0.82856329  0.02933230  0.66096216    -0.12400
C519        C  0.81963265  0.05948052  0.67522932     0.13300
C520        C  0.77477956  0.05013380  0.67482786    -0.22800
C521        C  0.70927905  0.94310378  0.62778273    -0.05900
H522        H  0.79827215  0.96953919  0.63395623     0.14800
C523        C  0.85672201  0.10235206  0.69085487    -0.16100
H524        H  0.76834884  0.07278777  0.68632608     0.09100
H525        H  0.57965932  0.01127533  0.61546741     0.07000
H526        H  0.63672594  0.05302431  0.61000991     0.08200
H527        H  0.61143621  0.06642408  0.63475581     0.07200
H528        H  0.71717352  0.98749967  0.71299664     0.02100
H529        H  0.68956208  0.93311368  0.69352535     0.02600
H530        H  0.66078396  0.94215089  0.71817282     0.06100
H531        H  0.72182816  0.92416359  0.61691987     0.05100
H532        H  0.69262846  0.95560133  0.61336709    -0.00700
H533        H  0.68384078  0.91834614  0.64026862     0.00800
H534        H  0.85559197  0.13319810  0.68422735     0.04400
H535        H  0.89110432  0.10916866  0.68847125     0.06400
H536        H  0.85151896  0.09878330  0.71186025     0.07300
C537        C  0.29806490  0.06376906  0.65702761    -0.22400
C538        C  0.26771961  0.03327466  0.67394008     0.09600
C539        C  0.28023448  0.00589868  0.68907483     0.10000
C540        C  0.32157975  0.00824054  0.68626304    -0.17300
C541        C  0.35064599  0.03606735  0.66787345    -0.27700
C542        C  0.33898109  0.06530398  0.65360079     0.18300
C543        C  0.22165439  0.02779140  0.67392035     0.12300
C544        C  0.24897496  0.97265331  0.70748518    -0.12100
H545        H  0.32945193  0.98535257  0.69721794     0.12600
C546        C  0.36909639  0.09808078  0.63456592    -0.22900
H547        H  0.28870733  0.08513349  0.64558256     0.08200
C548        C  0.21384640  0.05731219  0.68938021     0.04600
C549        C  0.17012970  0.05161090  0.68763610    -0.20100
C550        C  0.13372178  0.01721119  0.67058064    -0.12400
C551        C  0.14130309  0.98636317  0.65600931     0.13300
C552        C  0.18493766  0.99224616  0.65775465    -0.22800
C553        C  0.25194184  0.09543639  0.70732570    -0.05900
H554        H  0.16496204  0.07566764  0.69869673     0.14800
C555        C  0.10397988  0.94632042  0.63863655    -0.16100
H556        H  0.19044148  0.96892209  0.64620744     0.09100
H557        H  0.35697602  0.12121789  0.62715660     0.07000
H558        H  0.36938622  0.07831262  0.61739844     0.08200
H559        H  0.40412475  0.12040210  0.64430944     0.07200
H560        H  0.21627259  0.94648850  0.69641085     0.02100
H561        H  0.24252037  0.99206514  0.72224597     0.02600
H562        H  0.26368424  0.95379535  0.71793229     0.06100
H563        H  0.24040584  0.11548212  0.71806181     0.05100
H564        H  0.27947208  0.11990117  0.69583608    -0.00700
H565        H  0.26562365  0.08020759  0.72184592     0.00800
H566        H  0.11191035  0.95141548  0.61807840     0.04400
H567        H  0.07025373  0.94216143  0.63974075     0.06400
H568        H  0.10145626  0.91342102  0.64466366     0.07300
C569        C  0.45811623  0.49992806  0.80552957    -0.22400
C570        C  0.47833178  0.54248449  0.82017321     0.09600
C571        C  0.49569806  0.58413680  0.80694893     0.10000
C572        C  0.49342298  0.58226192  0.77949478    -0.17300
C573        C  0.47420230  0.53973121  0.76484355    -0.27700
C574        C  0.45609151  0.49801956  0.77810766     0.18300
C575        C  0.48498106  0.54244427  0.84923202     0.12300
C576        C  0.51703052  0.63057749  0.82179513    -0.12100
H577        H  0.50778500  0.61430181  0.76941461     0.12600
C578        C  0.43747746  0.45169244  0.76361690    -0.22900
H579        H  0.44559656  0.46811181  0.81573863     0.08200
C580        C  0.44854919  0.52535357  0.86471038     0.04600
C581        C  0.45614365  0.52078692  0.89160753    -0.20100
C582        C  0.49956880  0.53376090  0.90366793    -0.12400
C583        C  0.53629510  0.55290463  0.88818684     0.13300
C584        C  0.52845062  0.55657034  0.86126802    -0.22800
C585        C  0.40170275  0.51191600  0.85283458    -0.05900
H586        H  0.42778394  0.50621075  0.90322820     0.14800
C587        C  0.58374594  0.56857021  0.89963738    -0.16100
H588        H  0.55633649  0.56960578  0.84932876     0.09100
H589        H  0.42652777  0.42292805  0.77708152     0.07000
H590        H  0.46393158  0.45235148  0.75261204     0.08200
H591        H  0.40761029  0.44404486  0.74985912     0.07200
H592        H  0.54746504  0.63708946  0.83467658     0.02100
H593        H  0.49220436  0.63094391  0.83386545     0.02600
H594        H  0.52781465  0.65951548  0.80846136     0.06100
H595        H  0.37729905  0.50024732  0.86771869     0.05100
H596        H  0.38893079  0.48305020  0.83776189    -0.00700
H597        H  0.40281592  0.54232664  0.84369028     0.00800
H598        H  0.58474822  0.53997050  0.90980143     0.04400
H599        H  0.59521155  0.59879831  0.91335112     0.06400
H600        H  0.60772661  0.57992864  0.88452277     0.07300
C601        C  0.55701649  0.80369866  0.04225926    -0.22400
C602        C  0.57876973  0.79458158  0.02356658     0.09600
C603        C  0.59958932  0.82645553  0.00445722     0.10000
C604        C  0.59348166  0.86431734  0.00252139    -0.17300
C605        C  0.56599967  0.86987308  0.01883136    -0.27700
C606        C  0.55056241  0.84147513  0.04029528     0.18300
C607        C  0.57340043  0.74842767  0.02189662     0.12300
C608        C  0.62564024  0.81880504  0.98512772    -0.12100
H609        H  0.60652827  0.88708006  0.98661830     0.12600
C610        C  0.52455928  0.84840797  0.06001849    -0.22900
H611        H  0.54219364  0.77925152  0.05723901     0.08200
C612        C  0.60306143  0.73840972  0.03676596     0.04600
C613        C  0.59634307  0.69384344  0.03408175    -0.20100
C614        C  0.56034515  0.65909546  0.01700398    -0.12400
C615        C  0.53033320  0.66931954  0.00221599     0.13300
C616        C  0.53736185  0.71410234  0.00491125    -0.22800
C617        C  0.64161177  0.77471938  0.05536109    -0.05900
H618        H  0.61961603  0.68621774  0.04529079     0.14800
C619        C  0.49020073  0.63322063  0.98430549    -0.16100
H620        H  0.51465257  0.72256012  0.99375473     0.09100
H621        H  0.51530310  0.82269495  0.07529644     0.07000
H622        H  0.49264227  0.84442090  0.05039100     0.08200
H623        H  0.54577794  0.88365975  0.06987860     0.07200
H624        H  0.60299850  0.78564846  0.97337053     0.02100
H625        H  0.65425006  0.81727197  0.99568693     0.02600
H626        H  0.63983161  0.84731941  0.97150944     0.06100
H627        H  0.66176748  0.76103944  0.06547127     0.05100
H628        H  0.62799368  0.78641270  0.07040143    -0.00700
H629        H  0.66464831  0.80502354  0.04452956     0.00800
H630        H  0.46891332  0.64685288  0.97578413     0.04400
H631        H  0.46853378  0.60255225  0.99534703     0.06400
H632        H  0.50194955  0.62237088  0.96784809     0.07300
C633        C  0.47428115  0.16436666  0.95334932    -0.22400
C634        C  0.45587951  0.17874750  0.97167725     0.09600
C635        C  0.42815213  0.14749793  0.98934111     0.10000
C636        C  0.42382737  0.10387305  0.99032029    -0.17300
C637        C  0.44717032  0.09162683  0.97426638    -0.27700
C638        C  0.47034478  0.12088270  0.95440962     0.18300
C639        C  0.46885185  0.22770678  0.97332668     0.12300
C640        C  0.40561826  0.16131636  0.00815113    -0.12100
H641        H  0.40602184  0.08115861  0.00544882     0.12600
C642        C  0.49444234  0.10940507  0.93548689    -0.22900
H643        H  0.49441659  0.18841823  0.93931881     0.08200
C644        C  0.50810855  0.26132488  0.98909707     0.04600
C645        C  0.51875880  0.30764371  0.99027069    -0.20100
C646        C  0.49117436  0.32066301  0.97573713    -0.12400
C647        C  0.45121533  0.28622831  0.96029170     0.13300
C648        C  0.44088636  0.24023960  0.95924279    -0.22800
C649        C  0.53847124  0.24812591  0.00466665    -0.05900
H650        H  0.54877683  0.33376057  0.00233607     0.14800
C651        C  0.41783971  0.29669555  0.94574396    -0.16100
H652        H  0.41052984  0.21363907  0.94759314     0.09100
H653        H  0.53111773  0.13630240  0.93788140     0.07000
H654        H  0.48035580  0.10930559  0.91522519     0.08200
H655        H  0.49086988  0.07505946  0.93800261     0.07200
H656        H  0.38233835  0.17035373  0.99711621     0.02100
H657        H  0.43166427  0.19190730  0.02087846     0.02600
H658        H  0.38550828  0.13270017  0.02084039     0.06100
H659        H  0.56766340  0.27861044  0.01601066     0.05100
H660        H  0.55201654  0.23340005  0.99132401    -0.00700
H661        H  0.51892658  0.22175038  0.01859034     0.00800
H662        H  0.43365167  0.32050184  0.93002592     0.04400
H663        H  0.40587962  0.31230074  0.95952086     0.06400
H664        H  0.38742532  0.26475955  0.93632710     0.07300
C665        C  0.40603520  0.95667149  0.79755262    -0.22400
C666        C  0.43249584  0.94296538  0.81277108     0.09600
C667        C  0.45760864  0.92779667  0.80020066     0.10000
C668        C  0.45774403  0.92906816  0.77295520    -0.17300
C669        C  0.43343130  0.94525000  0.75757146    -0.27700
C670        C  0.40599576  0.95794831  0.77013438     0.18300
C671        C  0.43568023  0.94664375  0.84189826     0.12300
C672        C  0.48567267  0.91172021  0.81568272    -0.12100
H673        H  0.47830080  0.91861946  0.76370145     0.12600
C674        C  0.37792623  0.97458729  0.75517727    -0.22900
H675        H  0.38633616  0.96769154  0.80729595     0.08200
C676        C  0.46569872  0.98911206  0.85634404     0.04600
C677        C  0.47301731  0.98973834  0.88375262    -0.20100
C678        C  0.45132229  0.94873139  0.89729560    -0.12400
C679        C  0.41899327  0.90648349  0.88267194     0.13300
C680        C  0.41177377  0.90622435  0.85529885    -0.22800
C681        C  0.49114182  0.03359460  0.84269805    -0.05900
H682        H  0.49716554  0.02232151  0.89452718     0.14800
C683        C  0.39165485  0.86118204  0.89539688    -0.16100
H684        H  0.38841320  0.87384489  0.84409523     0.09100
H685        H  0.40022623  0.00657969  0.74526416     0.07000
H686        H  0.35893243  0.98304366  0.76819377     0.08200
H687        H  0.35269353  0.94699745  0.74053263     0.07200
H688        H  0.46338707  0.88083212  0.82637505     0.02100
H689        H  0.51120400  0.94003150  0.82988678     0.02600
H690        H  0.50399003  0.90186776  0.80293343     0.06100
H691        H  0.51367477  0.06367639  0.85673629     0.05100
H692        H  0.46670558  0.04101092  0.83160782    -0.00700
H693        H  0.51241911  0.03023515  0.82899670     0.00800
H694        H  0.36595173  0.83312192  0.88111037     0.04400
H695        H  0.37326584  0.86566866  0.91063285     0.06400
H696        H  0.41419891  0.84920737  0.90409355     0.07300
C697        C  0.77324317  0.24367596  0.97094819    -0.22400
C698        C  0.74193791  0.24094132  0.98739587     0.09600
C699        C  0.75406067  0.27961109  0.00439165     0.10000
C700        C  0.79798946  0.31908603  0.00553573    -0.17300
C701        C  0.83014120  0.32123257  0.98988767    -0.27700
C702        C  0.81717481  0.28320369  0.97193839     0.18300
C703        C  0.69846513  0.19593368  0.98842649     0.12300
C704        C  0.72078167  0.27898146  0.02156947    -0.12100
H705        H  0.80778955  0.34800854  0.01930349     0.12600
C706        C  0.84920091  0.28152271  0.95462041    -0.22900
H707        H  0.76396636  0.21390980  0.95798514     0.08200
C708        C  0.66104712  0.18056830  0.96925634     0.04600
C709        C  0.62001226  0.13905555  0.97232557    -0.20100
C710        C  0.61518837  0.11290627  0.99438755    -0.12400
C711        C  0.65372923  0.12733630  0.01288358     0.13300
C712        C  0.69471576  0.16841758  0.00953056    -0.22800
C713        C  0.66402012  0.20874066  0.94604926    -0.05900
H714        H  0.59100872  0.12806858  0.95797888     0.14800
C715        C  0.65243546  0.09955054  0.03609969    -0.16100
H716        H  0.72392964  0.17990899  0.02386723     0.09100
H717        H  0.83493035  0.27692879  0.93388967     0.07000
H718        H  0.85330038  0.25157685  0.95934274     0.08200
H719        H  0.88328743  0.31324760  0.95674068     0.07200
H720        H  0.71104679  0.25081810  0.03533060     0.02100
H721        H  0.68994938  0.27301729  0.00929310     0.02600
H722        H  0.73534116  0.31238387  0.03324421     0.06100
H723        H  0.63150893  0.19230898  0.93312749     0.05100
H724        H  0.69085603  0.21194737  0.93441190    -0.00700
H725        H  0.67237930  0.24398684  0.95277817     0.00800
H726        H  0.63947993  0.06291729  0.02949868     0.04400
H727        H  0.63058250  0.10080088  0.05014601     0.06400
H728        H  0.68668749  0.11356122  0.04680887     0.07300
C729        C  0.22593526  0.68298543  0.02435272    -0.22400
C730        C  0.25395083  0.69276160  0.00437903     0.09600
C731        C  0.23831871  0.66130005  0.98234520     0.10000
C732        C  0.19478314  0.62128379  0.98061405    -0.17300
C733        C  0.16574679  0.61183815  0.00016305    -0.27700
C734        C  0.18180185  0.64358544  0.02243695     0.18300
C735        C  0.29865338  0.73710580  0.00612879     0.12300
C736        C  0.26688140  0.67078055  0.96012356    -0.12100
H737        H  0.18281779  0.59769977  0.96342173     0.12600
C738        C  0.15340968  0.63969517  0.04393532    -0.22900
H739        H  0.23802499  0.70736318  0.04120085     0.08200
C740        C  0.30191251  0.78032990  0.00212749     0.04600
C741        C  0.34485601  0.82057572  0.00129455    -0.20100
C742        C  0.38438361  0.81831113  0.00349929    -0.12400
C743        C  0.38119011  0.77521324  0.00804223     0.13300
C744        C  0.33844569  0.73540770  0.00979011    -0.22800
C745        C  0.26005398  0.78367084  0.99744441    -0.05900
H746        H  0.34743646  0.85357584  0.99762461     0.14800
C747        C  0.42194590  0.76968960  0.01077606    -0.16100
H748        H  0.33596385  0.70233144  0.01303970     0.09100
H749        H  0.15184023  0.67180006  0.04547397     0.07000
H750        H  0.16939708  0.63616455  0.06277753     0.08200
H751        H  0.11814846  0.61028868  0.04101936     0.07200
H752        H  0.29857096  0.67148078  0.96702961     0.02100
H753        H  0.27555588  0.70480236  0.95224468     0.02600
H754        H  0.24881279  0.64360384  0.94392718     0.06100
H755        H  0.26865485  0.81974827  0.99377608     0.05100
H756        H  0.24087234  0.77277016  0.01476422    -0.00700
H757        H  0.23809434  0.76082311  0.98013808     0.00800
H758        H  0.42487780  0.75675922  0.03022829     0.04400
H759        H  0.45418926  0.80255295  0.00886262     0.06400
H760        H  0.41775780  0.74406458  0.99544834     0.07300
C761        C  0.92814638  0.47248319  0.85510247    -0.22400
C762        C  0.94397456  0.44815439  0.84182166     0.09600
C763        C  0.95770710  0.42067744  0.85582002     0.10000
C764        C  0.95843105  0.42082317  0.88311182    -0.17300
C765        C  0.94687580  0.44881650  0.89670218    -0.27700
C766        C  0.92951082  0.47331583  0.88242732     0.18300
C767        C  0.95181728  0.45720182  0.81407120     0.12300
C768        C  0.97305167  0.39249877  0.84200992    -0.12100
H769        H  0.97124325  0.40166485  0.89398731     0.12600
C770        C  0.91273434  0.50068669  0.89579738    -0.22900
H771        H  0.91709717  0.49302412  0.84414743     0.08200
C772        C  0.91630567  0.43742083  0.79361553     0.04600
C773        C  0.92600553  0.44952825  0.76789980    -0.20100
C774        C  0.97054916  0.48130275  0.76206337    -0.12400
C775        C  0.00622334  0.50055690  0.78290495     0.13300
C776        C  0.99615265  0.48829415  0.80850154    -0.22800
C777        C  0.86831495  0.40352450  0.79897707    -0.05900
H778        H  0.89838271  0.43413342  0.75230826     0.14800
C779        C  0.05496919  0.53468995  0.77884825    -0.16100
H780        H  0.02309588  0.50350792  0.82450648     0.09100
H781        H  0.88665743  0.47796652  0.90858579     0.07000
H782        H  0.89706988  0.51435179  0.88147414     0.08200
H783        H  0.94119005  0.53097316  0.90758299     0.07200
H784        H  0.00345281  0.41576567  0.83209998     0.02100
H785        H  0.94537764  0.36753612  0.82727266     0.02600
H786        H  0.98202812  0.37244075  0.85580307     0.06100
H787        H  0.84448331  0.39150694  0.78084121     0.05100
H788        H  0.85696959  0.42031531  0.81246981    -0.00700
H789        H  0.86652763  0.37271895  0.80799002     0.00800
H790        H  0.05782676  0.56602230  0.76994406     0.04400
H791        H  0.06760724  0.51808410  0.76614905     0.06400
H792        H  0.07754115  0.54649371  0.79752208     0.07300
C793        C  0.83077616  0.78973920  0.01548084    -0.22400
C794        C  0.81644715  0.75264814  0.99686549     0.09600
C795        C  0.84504391  0.75910637  0.97737001     0.10000
C796        C  0.88660652  0.80164451  0.97696137    -0.17300
C797        C  0.90165852  0.83895782  0.99569648    -0.27700
C798        C  0.87280545  0.83240654  0.01528278     0.18300
C799        C  0.77135231  0.70773473  0.99784122     0.12300
C800        C  0.83224130  0.72055375  0.95721708    -0.12100
H801        H  0.90811399  0.80518545  0.96202901     0.12600
C802        C  0.88545169  0.87035102  0.03577095    -0.22900
H803        H  0.80886571  0.78519390  0.03037009     0.08200
C804        C  0.76483678  0.67443134  0.01641872     0.04600
C805        C  0.72141466  0.63385886  0.01718203    -0.20100
C806        C  0.68349973  0.62472896  0.99962195    -0.12400
C807        C  0.69080862  0.65782322  0.98055941     0.13300
C808        C  0.73419239  0.69825010  0.97983633    -0.22800
C809        C  0.80387232  0.68179730  0.03553543    -0.05900
H810        H  0.71684854  0.60957504  0.03208971     0.14800
C811        C  0.65258170  0.65177241  0.96139068    -0.16100
H812        H  0.73892725  0.72339248  0.96543252     0.09100
H813        H  0.85807254  0.86042068  0.04857802     0.07000
H814        H  0.89163502  0.90244950  0.02627197     0.08200
H815        H  0.91639115  0.87752221  0.04837570     0.07200
H816        H  0.80007489  0.71163070  0.94537254     0.02100
H817        H  0.82778195  0.68931839  0.96705796     0.02600
H818        H  0.85869551  0.73064152  0.94372398     0.06100
H819        H  0.79362459  0.65243338  0.04851496     0.05100
H820        H  0.81681614  0.71410459  0.04795718    -0.00700
H821        H  0.83160489  0.68488098  0.02477629     0.00800
H822        H  0.62542837  0.65071666  0.97185623     0.04400
H823        H  0.63926790  0.61883040  0.94972865     0.06400
H824        H  0.66376741  0.68040294  0.94782445     0.07300
C825        C  0.21543644  0.23134848  0.01680428    -0.22400
C826        C  0.24701292  0.23039974  0.00198061     0.09600
C827        C  0.23660726  0.18690357  0.99086005     0.10000
C828        C  0.19554825  0.14571469  0.99509368    -0.17300
C829        C  0.16417889  0.14626876  0.01051959    -0.27700
C830        C  0.17440371  0.19042010  0.02110465     0.18300
C831        C  0.29153933  0.27486944  0.99941582     0.12300
C832        C  0.26869104  0.18406612  0.97413772    -0.12100
H833        H  0.18807419  0.11278599  0.98638201     0.12600
C834        C  0.14171051  0.19549345  0.03626824    -0.22900
H835        H  0.22314172  0.26456160  0.02523469     0.08200
C836        C  0.29562669  0.30945428  0.98228438     0.04600
C837        C  0.33880420  0.34963738  0.98012442    -0.20100
C838        C  0.37853722  0.35688733  0.99494125    -0.12400
C839        C  0.37391402  0.32182358  0.01204414     0.13300
C840        C  0.33083979  0.28219621  0.01435240    -0.22800
C841        C  0.25452370  0.30331273  0.96575296    -0.05900
H842        H  0.34166401  0.37513092  0.96638232     0.14800
C843        C  0.41462678  0.32379650  0.02653115    -0.16100
H844        H  0.32795179  0.25570257  0.02735134     0.09100
H845        H  0.15383833  0.23252450  0.04138483     0.07000
H846        H  0.13777799  0.17783886  0.05484406     0.08200
H847        H  0.10827904  0.18044494  0.02439971     0.07200
H848        H  0.30188474  0.19628803  0.98574740     0.02100
H849        H  0.27384886  0.20621179  0.95730515     0.02600
H850        H  0.25534406  0.14790641  0.96641873     0.06100
H851        H  0.26335836  0.33281077  0.95303657     0.05100
H852        H  0.22937204  0.30119385  0.97847053    -0.00700
H853        H  0.23886369  0.27081908  0.95309524     0.00800
H854        H  0.43414199  0.35629547  0.03892163     0.04400
H855        H  0.43619183  0.32240891  0.01242363     0.06400
H856        H  0.40508271  0.29422340  0.03928426     0.07300
C857        C  0.99992550  0.67479699  0.99085837    -0.22400
C858        C  0.03184779  0.70447471  0.01124582     0.09600
C859        C  0.05309651  0.68765349  0.02875844     0.10000
C860        C  0.04362392  0.64199826  0.02468369    -0.17300
C861        C  0.01460929  0.61345189  0.00296273    -0.27700
C862        C  0.99114626  0.62949922  0.98638116     0.18300
C863        C  0.04286265  0.75327475  0.01337576     0.12300
C864        C  0.08708861  0.71854822  0.05103590    -0.12100
H865        H  0.06128181  0.62969945  0.03754212     0.12600
C866        C  0.95667877  0.59903203  0.96407565    -0.22900
H867        H  0.98295336  0.68776990  0.97787510     0.08200
C868        C  0.07339849  0.78710047  0.99762839     0.04600
C869        C  0.07790779  0.83105592  0.99752185    -0.20100
C870        C  0.05269695  0.84198987  0.01285742    -0.12400
C871        C  0.02408914  0.80884683  0.02976765     0.13300
C872        C  0.01967414  0.76487280  0.02984763    -0.22800
C873        C  0.10019435  0.77634029  0.98040471    -0.05900
H874        H  0.09955721  0.85630021  0.98444452     0.14800
C875        C  0.99563229  0.81829558  0.04633145    -0.16100
H876        H  0.99640511  0.73860618  0.04189908     0.09100
H877        H  0.93904336  0.61589164  0.95461102     0.07000
H878        H  0.93066121  0.56575036  0.97144681     0.08200
H879        H  0.97326704  0.59183174  0.94884372     0.07200
H880        H  0.07068851  0.73037381  0.06408415     0.02100
H881        H  0.11585237  0.74934513  0.04331856     0.02600
H882        H  0.10088051  0.70011743  0.06282195     0.06100
H883        H  0.12269386  0.80680768  0.96947014     0.05100
H884        H  0.07679177  0.74724476  0.96601092    -0.00700
H885        H  0.12173334  0.76633685  0.99253850     0.00800
H886        H  0.97253380  0.82569733  0.03372952     0.04400
H887        H  0.01795622  0.84851049  0.06030315     0.06400
H888        H  0.97443264  0.78808059  0.05780543     0.07300
C889        C  0.96919496  0.17063540  0.00206290    -0.22400
C890        C  0.99950078  0.20527128  0.98688880     0.09600
C891        C  0.03043494  0.19859783  0.97438999     0.10000
C892        C  0.03154546  0.15790539  0.97814686    -0.17300
C893        C  0.00298041  0.12425513  0.99452272    -0.27700
C894        C  0.97020558  0.12989016  0.00588644     0.18300
C895        C  0.00035289  0.24961379  0.98609519     0.12300
C896        C  0.06327140  0.23513095  0.95788128    -0.12100
H897        H  0.05681617  0.15373899  0.96955111     0.12600
C898        C  0.93566369  0.09373911  0.02189037    -0.22900
H899        H  0.94512885  0.17585417  0.01137078     0.08200
C900        C  0.97071469  0.25568184  0.96820612     0.04600
C901        C  0.96976077  0.29684270  0.97021118    -0.20100
C902        C  0.99673837  0.33109715  0.99024936    -0.12400
C903        C  0.02865077  0.32617795  0.00699394     0.13300
C904        C  0.02984719  0.28531186  0.00476709    -0.22800
C905        C  0.93889121  0.21794647  0.94780699    -0.05900
H906        H  0.94562352  0.30076590  0.95726430     0.14800
C907        C  0.06164954  0.36315362  0.02750239    -0.16100
H908        H  0.05314864  0.28070407  0.01815347     0.09100
H909        H  0.90108108  0.08444107  0.01353762     0.07000
H910        H  0.94167343  0.10800943  0.04229118     0.08200
H911        H  0.93626141  0.06109468  0.02204659     0.07200
H912        H  0.08551355  0.26805368  0.96991736     0.02100
H913        H  0.04429255  0.24143868  0.94149372     0.02600
H914        H  0.08521344  0.22435306  0.94953334     0.06100
H915        H  0.91781942  0.22824454  0.93542505     0.05100
H916        H  0.91577220  0.18587150  0.95739578    -0.00700
H917        H  0.95863315  0.21031532  0.93496554     0.00800
H918        H  0.05423048  0.34962315  0.04719905     0.04400
H919        H  0.06060662  0.39554984  0.02660996     0.06400
H920        H  0.09674762  0.37259150  0.02460031     0.07300
C921        C  0.05742231  0.06077699  0.86750320    -0.22400
C922        C  0.03595698  0.02220822  0.84948438     0.09600
C923        C  0.01406403  0.97712518  0.85874313     0.10000
C924        C  0.01367077  0.97150117  0.88570163    -0.17300
C925        C  0.03431514  0.00981946  0.90410749    -0.27700
C926        C  0.05700290  0.05535346  0.89467813     0.18300
C927        C  0.03260379  0.02906090  0.82097499     0.12300
C928        C  0.99002484  0.93472643  0.84006771    -0.12100
H929        H  0.99657590  0.93649154  0.89234305     0.12600
C930        C  0.08014669  0.09851192  0.91277561    -0.22900
H931        H  0.07378541  0.09532616  0.86018707     0.08200
C932        C  0.99731214  0.03446786  0.80915383     0.04600
C933        C  0.99087557  0.03429755  0.78186198    -0.20100
C934        C  0.01870678  0.02869074  0.76581128    -0.12400
C935        C  0.05493449  0.02435132  0.77769990     0.13300
C936        C  0.06154379  0.02495382  0.80516960    -0.22800
C937        C  0.96540665  0.03884041  0.82535626    -0.05900
H938        H  0.96313554  0.03762182  0.77289625     0.14800
C939        C  0.08550913  0.01617536  0.76232482    -0.16100
H940        H  0.08825765  0.02013387  0.81428380     0.09100
H941        H  0.09519916  0.13071681  0.90187782     0.07000
H942        H  0.10810179  0.09942990  0.92572995     0.08200
H943        H  0.05520977  0.09907582  0.92466600     0.07200
H944        H  0.01457703  0.93414361  0.82785843     0.02100
H945        H  0.96283428  0.93547378  0.82723696     0.02600
H946        H  0.97416298  0.90200454  0.85047966     0.06100
H947        H  0.93935799  0.04236754  0.81305250     0.05100
H948        H  0.98481601  0.07007029  0.83903461    -0.00700
H949        H  0.94760962  0.00747151  0.83670366     0.00800
H950        H  0.12112362  0.04522454  0.76691375     0.04400
H951        H  0.07659392  0.01321377  0.74097150     0.06400
H952        H  0.08332857  0.98321207  0.76785792     0.07300
C953        C  0.50266201  0.47545428  0.47178600    -0.22400
C954        C  0.49795815  0.51064945  0.48276721     0.09600
C955        C  0.49758567  0.54432672  0.46659186     0.10000
C956        C  0.50299815  0.54257214  0.43988524    -0.17300
C957        C  0.50928643  0.50812859  0.42886773    -0.27700
C958        C  0.50822269  0.47349151  0.44522035     0.18300
C959        C  0.49412105  0.51128172  0.51137163     0.12300
C960        C  0.49133198  0.58198987  0.47751484    -0.12100
H961        H  0.50336931  0.56898769  0.42771115     0.12600
C962        C  0.51237247  0.43376058  0.43515897    -0.22900
H963        H  0.50252180  0.44950899  0.48430870     0.08200
C964        C  0.45401128  0.47897541  0.52188960     0.04600
C965        C  0.45329420  0.47777289  0.54913128    -0.20100
C966        C  0.49162513  0.50850011  0.56654432    -0.12400
C967        C  0.53154987  0.54196872  0.55572415     0.13300
C968        C  0.53224889  0.54250445  0.52838137    -0.22800
C969        C  0.41164240  0.44614686  0.50430180    -0.05900
H970        H  0.42217324  0.45250133  0.55678764     0.14800
C971        C  0.57359415  0.57759253  0.57253034    -0.16100
H972        H  0.56297706  0.56723004  0.52013952     0.09100
H973        H  0.48617221  0.41446931  0.41843382     0.07000
H974        H  0.50737582  0.40857713  0.45032082     0.08200
H975        H  0.54677382  0.44707101  0.42916178     0.07200
H976        H  0.51939805  0.60362795  0.49294654     0.02100
H977        H  0.45851428  0.56607846  0.48601053     0.02600
H978        H  0.49117691  0.60515327  0.46222188     0.06100
H979        H  0.38281390  0.42388708  0.51560816     0.05100
H980        H  0.41780898  0.42300771  0.49220413    -0.00700
H981        H  0.40164072  0.46639457  0.49131148     0.00800
H982        H  0.58698703  0.55985717  0.58522079     0.04400
H983        H  0.56563557  0.59933081  0.58461179     0.06400
H984        H  0.60091363  0.60129482  0.56067038     0.07300
C985        C  0.56162390  0.46701181  0.19577256    -0.22400
C986        C  0.54465768  0.48456594  0.17611381     0.09600
C987        C  0.52746284  0.51250414  0.18354446     0.10000
C988        C  0.52729078  0.52183107  0.21023161    -0.17300
C989        C  0.54400738  0.50417911  0.23022566    -0.27700
C990        C  0.56189897  0.47653687  0.22256319     0.18300
C991        C  0.54671970  0.47490459  0.14791716     0.12300
C992        C  0.50989841  0.53327529  0.16327588    -0.12100
H993        H  0.51356095  0.54300738  0.21541203     0.12600
C994        C  0.58209556  0.45726213  0.24219523    -0.22900
H995        H  0.57495895  0.44572593  0.19004776     0.08200
C996        C  0.58814572  0.49649330  0.13672592     0.04600
C997        C  0.58815544  0.48963975  0.10973010    -0.20100
C998        C  0.54774889  0.46185428  0.09309645    -0.12400
C999        C  0.50635084  0.43856781  0.10467158     0.13300
C1000       C  0.50648445  0.44534395  0.13179061    -0.22800
C1001       C  0.63238897  0.52848245  0.15305360    -0.05900
H1002       H  0.62017733  0.50757474  0.10141118     0.14800
C1003       C  0.46169865  0.40716574  0.08876694    -0.16100
H1004       H  0.47476152  0.42818643  0.14045203     0.09100
H1005       H  0.61059750  0.48619034  0.25479394     0.07000
H1006       H  0.59577514  0.43812192  0.23264234     0.08200
H1007       H  0.55581650  0.43251360  0.25425743     0.07200
H1008       H  0.48012513  0.50522013  0.15092799     0.02100
H1009       H  0.53693513  0.55506251  0.15077388     0.02600
H1010       H  0.49909357  0.55553421  0.17231010     0.06100
H1011       H  0.66144301  0.54386345  0.14113856     0.05100
H1012       H  0.63903044  0.50895073  0.16835712    -0.00700
H1013       H  0.63085997  0.55736690  0.16242841     0.00800
H1014       H  0.46245055  0.37720687  0.08041090     0.04400
H1015       H  0.45540591  0.42639112  0.07309504     0.06400
H1016       H  0.43285600  0.39315909  0.10082112     0.07300
C1017       C  0.50620803  0.01608552  0.53560956    -0.22400
C1018       C  0.52272077  0.05663080  0.52181264     0.09600
C1019       C  0.53462611  0.09889304  0.53524377     0.10000
C1020       C  0.52924520  0.09939344  0.56208738    -0.17300
C1021       C  0.51259826  0.05862626  0.57577711    -0.27700
C1022       C  0.50089937  0.01652947  0.56230406     0.18300
C1023       C  0.52584825  0.05301018  0.49322024     0.12300
C1024       C  0.55329793  0.14338434  0.52129889    -0.12100
H1025       H  0.53778717  0.13154556  0.57236784     0.12600
C1026       C  0.48114189  0.97152579  0.57588331    -0.22900
H1027       H  0.49669575  0.98365934  0.52525784     0.08200
C1028       C  0.55932575  0.04625173  0.48389914     0.04600
C1029       C  0.55810328  0.03799124  0.45694543    -0.20100
C1030       C  0.52454557  0.03686598  0.43876270    -0.12400
C1031       C  0.49147070  0.04463508  0.44812385     0.13300
C1032       C  0.49250666  0.05237597  0.47518767    -0.22800
C1033       C  0.59669154  0.04822451  0.50240730    -0.05900
H1034       H  0.58386248  0.03269618  0.44999586     0.14800
C1035       C  0.45383948  0.04289517  0.42994733    -0.16100
H1036       H  0.46655299  0.05702964  0.48242777     0.09100
H1037       H  0.47346452  0.94181125  0.56248318     0.07000
H1038       H  0.44908551  0.96382788  0.58345938     0.08200
H1039       H  0.50546046  0.97423809  0.59238431     0.07200
H1040       H  0.52796031  0.14008333  0.50524240     0.02100
H1041       H  0.58478521  0.15087105  0.51304958     0.02600
H1042       H  0.56160193  0.17336455  0.53466851     0.06100
H1043       H  0.62077793  0.04341343  0.49190502     0.05100
H1044       H  0.58214322  0.02039438  0.51637136    -0.00700
H1045       H  0.61603003  0.08259040  0.51340179     0.00800
H1046       H  0.42964078  0.04700513  0.44075788     0.04400
H1047       H  0.43451666  0.00890323  0.41856881     0.06400
H1048       H  0.46812778  0.07150914  0.41644812     0.07300
C1049       C  0.50134316  0.79736343  0.32539756    -0.22400
C1050       C  0.53259576  0.79069628  0.34141041     0.09600
C1051       C  0.56206766  0.82626260  0.36058125     0.10000
C1052       C  0.55996632  0.86709956  0.36310401    -0.17300
C1053       C  0.52935219  0.87477247  0.34681000    -0.27700
C1054       C  0.49938556  0.83855504  0.32771315     0.18300
C1055       C  0.53321827  0.74600129  0.33829678     0.12300
C1056       C  0.59645762  0.82147511  0.37826979    -0.12100
H1057       H  0.58373366  0.89397787  0.37766381     0.12600
C1058       C  0.46469547  0.84243042  0.30984658    -0.22900
H1059       H  0.47830242  0.77005794  0.31082734     0.08200
C1060       C  0.50682847  0.70684480  0.35263791     0.04600
C1061       C  0.50771933  0.66552048  0.34898537    -0.20100
C1062       C  0.53388133  0.66107547  0.33098427    -0.12400
C1063       C  0.56166968  0.70104985  0.31723573     0.13300
C1064       C  0.56072804  0.74250277  0.32095613    -0.22800
C1065       C  0.47661561  0.70822503  0.37143553    -0.05900
H1066       H  0.48612763  0.63563315  0.35959296     0.14800
C1067       C  0.59387790  0.70202623  0.29909538    -0.16100
H1068       H  0.58189991  0.77252979  0.31023860     0.09100
H1069       H  0.44253773  0.81014668  0.29725371     0.07000
H1070       H  0.48186564  0.87135604  0.29680947     0.08200
H1071       H  0.44272160  0.84862614  0.32158125     0.07200
H1072       H  0.61982004  0.81785526  0.36640391     0.02100
H1073       H  0.57905127  0.79030788  0.38978442     0.02600
H1074       H  0.61709799  0.85222834  0.39218064     0.06100
H1075       H  0.45783803  0.67482923  0.38096141     0.05100
H1076       H  0.45142550  0.71513556  0.36085164    -0.00700
H1077       H  0.49722249  0.73614695  0.38695531     0.00800
H1078       H  0.58334544  0.70680334  0.27890812     0.04400
H1079       H  0.59580022  0.67014951  0.29909453     0.06400
H1080       H  0.62865214  0.73160646  0.30532573     0.07300
C1081       C  0.52257936  0.22214067  0.35401012    -0.22400
C1082       C  0.53177041  0.24815321  0.33169040     0.09600
C1083       C  0.53904955  0.22999402  0.30909458     0.10000
C1084       C  0.53609553  0.18632446  0.30914638    -0.17300
C1085       C  0.52627913  0.15952782  0.33136739    -0.27700
C1086       C  0.51944221  0.17833434  0.35417822     0.18300
C1087       C  0.53597984  0.29527822  0.33280047     0.12300
C1088       C  0.54964254  0.25672103  0.28474339    -0.12100
H1089       H  0.54079422  0.17267329  0.29141068     0.12600
C1090       C  0.50659376  0.15172701  0.37853969    -0.22900
H1091       H  0.51725174  0.23606143  0.37142211     0.08200
C1092       C  0.49871729  0.30153923  0.32648892     0.04600
C1093       C  0.50508118  0.34686443  0.32777042    -0.20100
C1094       C  0.54774253  0.38642864  0.33597954    -0.12400
C1095       C  0.58495185  0.37973459  0.34228022     0.13300
C1096       C  0.57858652  0.33473301  0.34043772    -0.22800
C1097       C  0.45205294  0.26018476  0.31878111    -0.05900
H1098       H  0.47634272  0.35121700  0.32306663     0.14800
C1099       C  0.63221398  0.42013613  0.35027194    -0.16100
H1100       H  0.60722138  0.33018581  0.34514998     0.09100
H1101       H  0.50126008  0.17089304  0.39404432     0.07000
H1102       H  0.53406170  0.14585887  0.38649842     0.08200
H1103       H  0.47443641  0.11786792  0.37406091     0.07200
H1104       H  0.58141971  0.29101532  0.28891064     0.02100
H1105       H  0.52146512  0.26225942  0.27793802     0.02600
H1106       H  0.55424163  0.23791814  0.26869136     0.06100
H1107       H  0.42654168  0.27065226  0.31462125     0.05100
H1108       H  0.44151847  0.23605934  0.33488022    -0.00700
H1109       H  0.45221745  0.24160778  0.30099029     0.00800
H1110       H  0.63362314  0.43693143  0.36917182     0.04400
H1111       H  0.64229095  0.44566791  0.33499466     0.06400
H1112       H  0.65753688  0.40911474  0.35270420     0.07300
C1113       C  0.54999068  0.01120080  0.14531524    -0.22400
C1114       C  0.51718032  0.97052332  0.15571463     0.09600
C1115       C  0.48570566  0.93217535  0.13862636     0.10000
C1116       C  0.48637076  0.93622607  0.11145035    -0.17300
C1117       C  0.51732842  0.97808365  0.10090848    -0.27700
C1118       C  0.55069446  0.01555822  0.11822037     0.18300
C1119       C  0.51374946  0.97110852  0.18430219     0.12300
C1120       C  0.45110540  0.88721579  0.14910201    -0.12100
H1121       H  0.46121197  0.90722041  0.09840283     0.12600
C1122       C  0.58755505  0.06020822  0.10849483    -0.22900
H1123       H  0.57424772  0.04040332  0.15855488     0.08200
C1124       C  0.54532532  0.96925629  0.20292452     0.04600
C1125       C  0.54302268  0.97505851  0.22975207    -0.20100
C1126       C  0.51051855  0.98385924  0.23831623    -0.12400
C1127       C  0.47782087  0.98386783  0.21951956     0.13300
C1128       C  0.47991233  0.97743458  0.19286573    -0.22800
C1129       C  0.58160553  0.96159115  0.19442659    -0.05900
H1130       H  0.56782652  0.97460086  0.24401681     0.14800
C1131       C  0.44011474  0.99003814  0.22729594    -0.16100
H1132       H  0.45571541  0.97870589  0.17847058     0.09100
H1133       H  0.61285339  0.08349682  0.12471925     0.07000
H1134       H  0.57293719  0.07968006  0.09880429     0.08200
H1135       H  0.60583741  0.05236380  0.09462844     0.07200
H1136       H  0.42852073  0.89304220  0.16045600     0.02100
H1137       H  0.46865905  0.87358642  0.16197781     0.02600
H1138       H  0.42961886  0.86038412  0.13316261     0.06100
H1139       H  0.60304257  0.96020124  0.21139402     0.05100
H1140       H  0.60398685  0.99040348  0.18251606    -0.00700
H1141       H  0.56563477  0.92818112  0.18259333     0.00800
H1142       H  0.41578964  0.98534007  0.21021837     0.04400
H1143       H  0.45414663  0.02559495  0.23613546     0.06400
H1144       H  0.42091674  0.96390793  0.24141977     0.07300
C1145       C  0.96501573  0.45898898  0.46864627    -0.22400
C1146       C  0.97717465  0.50324111  0.47849803     0.09600
C1147       C  0.99035210  0.53981631  0.46150197     0.10000
C1148       C  0.99086631  0.53115079  0.43485234    -0.17300
C1149       C  0.97988308  0.48704809  0.42491675    -0.27700
C1150       C  0.96653443  0.45035819  0.44219022     0.18300
C1151       C  0.97658379  0.51014205  0.50688229     0.12300
C1152       C  0.00511583  0.58820444  0.47164212    -0.12100
H1153       H  0.00165249  0.55951527  0.42191611     0.12600
C1154       C  0.95338030  0.40183827  0.43310915    -0.22900
H1155       H  0.95494449  0.43116836  0.48193232     0.08200
C1156       C  0.93758442  0.50402645  0.51707851     0.04600
C1157       C  0.93717718  0.50667435  0.54424429    -0.20100
C1158       C  0.97453511  0.51429138  0.56170791    -0.12400
C1159       C  0.01396790  0.52094942  0.55121852     0.13300
C1160       C  0.01441347  0.51904361  0.52396782    -0.22800
C1161       C  0.89582012  0.49311707  0.49928491    -0.05900
H1162       H  0.90680269  0.50147530  0.55184168     0.14800
C1163       C  0.05507196  0.52805698  0.56828059    -0.16100
H1164       H  0.04401648  0.52314479  0.51585107     0.09100
H1165       H  0.94064489  0.37720522  0.44888784     0.07000
H1166       H  0.98326611  0.40176537  0.42697372     0.08200
H1167       H  0.92600451  0.38867174  0.41662676     0.07200
H1168       H  0.03490222  0.60101484  0.48654381     0.02100
H1169       H  0.97713002  0.58805804  0.48065333     0.02600
H1170       H  0.01486688  0.61290777  0.45581571     0.06100
H1171       H  0.86803662  0.48886599  0.51042777     0.05100
H1172       H  0.88328548  0.46024901  0.48747509    -0.00700
H1173       H  0.90390807  0.52165457  0.48598608     0.00800
H1174       H  0.08180071  0.53100457  0.55660960     0.04400
H1175       H  0.04543909  0.49813739  0.58075494     0.06400
H1176       H  0.07008978  0.56068864  0.58062837     0.07300
C1177       C  0.79678235  0.47976761  0.33135254    -0.22400
C1178       C  0.80270910  0.52162232  0.32218521     0.09600
C1179       C  0.84195625  0.55262780  0.31072173     0.10000
C1180       C  0.87428183  0.54045519  0.30798407    -0.17300
C1181       C  0.86846558  0.49841185  0.31684521    -0.27700
C1182       C  0.82951487  0.46771287  0.32890668     0.18300
C1183       C  0.76637813  0.53143877  0.32363728     0.12300
C1184       C  0.84967031  0.59844214  0.30145556    -0.12100
H1185       H  0.90499521  0.56455537  0.29947544     0.12600
C1186       C  0.82087407  0.42190150  0.33867005    -0.22900
H1187       H  0.76620107  0.45621270  0.34012313     0.08200
C1188       C  0.72892763  0.51237620  0.30446012     0.04600
C1189       C  0.69386134  0.52053234  0.30723502    -0.20100
C1190       C  0.69471186  0.54592062  0.32926020    -0.12400
C1191       C  0.73429723  0.56814530  0.34742873     0.13300
C1192       C  0.76975218  0.56047374  0.34428079    -0.22800
C1193       C  0.72538306  0.48230953  0.28150989    -0.05900
H1194       H  0.66405657  0.50368316  0.29312123     0.14800
C1195       C  0.73984885  0.59985175  0.37008733    -0.16100
H1196       H  0.79971881  0.57603263  0.35836157     0.09100
H1197       H  0.78798216  0.39330390  0.32900223     0.07000
H1198       H  0.81919043  0.42201623  0.36008158     0.08200
H1199       H  0.84735798  0.41426708  0.33455527     0.07200
H1200       H  0.85050556  0.61996128  0.31812988     0.02100
H1201       H  0.82185842  0.59227398  0.28632537     0.02600
H1202       H  0.88234598  0.61846976  0.29289517     0.06100
H1203       H  0.69374363  0.47035900  0.26825523     0.05100
H1204       H  0.72533738  0.45107302  0.28850887    -0.00700
H1205       H  0.75466891  0.50229902  0.27010960     0.00800
H1206       H  0.71699888  0.57968253  0.38491050     0.04400
H1207       H  0.73256794  0.62674416  0.36299594     0.06400
H1208       H  0.77499556  0.61808660  0.38007376     0.07300
C1209       C  0.24747397  0.53986901  0.33003498    -0.22400
C1210       C  0.25536909  0.50763047  0.34289301     0.09600
C1211       C  0.22246662  0.47377628  0.35745728     0.10000
C1212       C  0.18139298  0.47202808  0.35820639    -0.17300
C1213       C  0.17252432  0.50291407  0.34441028    -0.27700
C1214       C  0.20602965  0.53768006  0.33040205     0.18300
C1215       C  0.29725321  0.50817288  0.33948216     0.12300
C1216       C  0.23012939  0.43870349  0.37146970    -0.12100
H1217       H  0.15544109  0.44542623  0.36891883     0.12600
C1218       C  0.19860261  0.57279753  0.31626057    -0.22900
H1219       H  0.27344825  0.56598917  0.31913591     0.08200
C1220       C  0.30235889  0.49089382  0.31593885     0.04600
C1221       C  0.34312084  0.49294893  0.31323951    -0.20100
C1222       C  0.37864159  0.51163681  0.33358000    -0.12400
C1223       C  0.37323118  0.52868769  0.35737255     0.13300
C1224       C  0.33219753  0.52627407  0.35999698    -0.22800
C1225       C  0.26464371  0.46983705  0.29382059    -0.05900
H1226       H  0.34735800  0.47992440  0.29509543     0.14800
C1227       C  0.40993914  0.55158257  0.37998001    -0.16100
H1228       H  0.32773425  0.53959166  0.37796996     0.09100
H1229       H  0.17082320  0.55515107  0.30011782     0.07000
H1230       H  0.22948195  0.59894728  0.30761257     0.08200
H1231       H  0.18977507  0.59153653  0.33009212     0.07200
H1232       H  0.25982654  0.45681109  0.38647681     0.02100
H1233       H  0.23648109  0.41832680  0.35728304     0.02600
H1234       H  0.20029817  0.41400508  0.38142839     0.06100
H1235       H  0.27403407  0.45690614  0.27707315     0.05100
H1236       H  0.25669771  0.49623644  0.28671374    -0.00700
H1237       H  0.23382493  0.44007036  0.30065791     0.00800
H1238       H  0.41563371  0.58647602  0.38505191     0.04400
H1239       H  0.44303189  0.55694636  0.37595839     0.06400
H1240       H  0.39901143  0.53021906  0.39721888     0.07300
C1241       C  0.03652310  0.51499197  0.13685964    -0.22400
C1242       C  0.05804307  0.49441581  0.15064260     0.09600
C1243       C  0.07469901  0.47127071  0.13654565     0.10000
C1244       C  0.06802723  0.46793920  0.10907424    -0.17300
C1245       C  0.04595158  0.48804625  0.09533319    -0.27700
C1246       C  0.03059734  0.51243740  0.10942945     0.18300
C1247       C  0.05977713  0.49509731  0.17970123     0.12300
C1248       C  0.09962066  0.45026369  0.15042526    -0.12100
H1249       H  0.07949795  0.44895081  0.09823979     0.12600
C1250       C  0.00558286  0.53348313  0.09565910    -0.22900
H1251       H  0.02308293  0.53202836  0.14768763     0.08200
C1252       C  0.08547385  0.53687448  0.19545075     0.04600
C1253       C  0.08163856  0.53630213  0.22241526    -0.20100
C1254       C  0.05277217  0.49501173  0.23418930    -0.12400
C1255       C  0.02779326  0.45291453  0.21843718     0.13300
C1256       C  0.03195089  0.45359029  0.19150968    -0.22800
C1257       C  0.11682254  0.58214240  0.18384904    -0.05900
H1258       H  0.10044269  0.56862608  0.23433676     0.14800
C1259       C  0.99405536  0.40714193  0.22869000    -0.16100
H1260       H  0.01154394  0.42165636  0.17937044     0.09100
H1261       H  0.02802997  0.56082558  0.08301790     0.07000
H1262       H  0.99451620  0.54979851  0.10967951     0.08200
H1263       H  0.97490249  0.50610284  0.08351833     0.07200
H1264       H  0.07702566  0.42231425  0.16268759     0.02100
H1265       H  0.12966803  0.47759067  0.16299094     0.02600
H1266       H  0.11160362  0.43482160  0.13644733     0.06100
H1267       H  0.13552563  0.61110637  0.19904930     0.05100
H1268       H  0.09724539  0.59166850  0.16966242    -0.00700
H1269       H  0.14207262  0.57869029  0.17377003     0.00800
H1270       H  0.96007824  0.39389075  0.21778652     0.04400
H1271       H  0.99039944  0.40939139  0.24963649     0.06400
H1272       H  0.00459844  0.38148423  0.22571885     0.07300
C1273       C  0.95861135  0.04306716  0.52186769    -0.22400
C1274       C  0.93597006  0.99751186  0.51073733     0.09600
C1275       C  0.91406953  0.95999956  0.52700396     0.10000
C1276       C  0.91792911  0.96887419  0.55419040    -0.17300
C1277       C  0.94410444  0.01439155  0.56561927    -0.27700
C1278       C  0.96306469  0.05205693  0.54900389     0.18300
C1279       C  0.94178435  0.99008452  0.48307069     0.12300
C1280       C  0.88754549  0.91052495  0.51572292    -0.12100
H1281       H  0.90292780  0.93994451  0.56670050     0.12600
C1282       C  0.98850052  0.10199221  0.55966112    -0.22900
H1283       H  0.97523912  0.07179168  0.50939099     0.08200
C1284       C  0.92129665  0.00078123  0.46139826     0.04600
C1285       C  0.93074128  0.99530739  0.43595694    -0.20100
C1286       C  0.96015894  0.97918779  0.43155106    -0.12400
C1287       C  0.98075373  0.96875769  0.45355793     0.13300
C1288       C  0.97136921  0.97456019  0.47878119    -0.22800
C1289       C  0.88914087  0.01744553  0.46508704    -0.05900
H1290       H  0.91490200  0.00353475  0.41942210     0.14800
C1291       C  0.01403074  0.95296777  0.45107956    -0.16100
H1292       H  0.98779393  0.96743329  0.49552347     0.09100
H1293       H  0.96727470  0.10785801  0.57223477     0.07000
H1294       H  0.99707287  0.12653077  0.54377986     0.08200
H1295       H  0.02091148  0.11062350  0.57105764     0.07200
H1296       H  0.91020490  0.90168192  0.50659400     0.02100
H1297       H  0.86025352  0.90620068  0.50074070     0.02600
H1298       H  0.87156543  0.88546611  0.53094698     0.06100
H1299       H  0.87523027  0.02320898  0.44613540     0.05100
H1300       H  0.90700581  0.05081451  0.47703397    -0.00700
H1301       H  0.86031007  0.99110406  0.47512190     0.00800
H1302       H  0.04267015  0.97877822  0.44071490     0.04400
H1303       H  0.99676253  0.91838762  0.44039774     0.06400
H1304       H  0.02857249  0.94933694  0.47042804     0.07300
C1305       C  0.03972386  0.71407331  0.31633294    -0.22400
C1306       C  0.01197500  0.71632445  0.33387812     0.09600
C1307       C  0.98680542  0.67710513  0.34844888     0.10000
C1308       C  0.99036226  0.63726352  0.34540936    -0.17300
C1309       C  0.01766506  0.63450053  0.32759443    -0.27700
C1310       C  0.04288623  0.67401279  0.31295858     0.18300
C1311       C  0.01142885  0.76068143  0.33757052     0.12300
C1312       C  0.95492915  0.67669604  0.36663829    -0.12100
H1313       H  0.96975313  0.60703472  0.35614302     0.12600
C1314       C  0.07431590  0.67581380  0.29397603    -0.22900
H1315       H  0.05946691  0.74409547  0.30524598     0.08200
C1316       C  0.04103127  0.79521373  0.35719047     0.04600
C1317       C  0.03989928  0.83637718  0.36016705    -0.20100
C1318       C  0.01062600  0.84525482  0.34366524    -0.12400
C1319       C  0.98106873  0.81075553  0.32386676     0.13300
C1320       C  0.98159689  0.76891192  0.32119754    -0.22800
C1321       C  0.07469038  0.78907114  0.37473329    -0.05900
H1322       H  0.06324384  0.86263935  0.37515328     0.14800
C1323       C  0.94815734  0.81735834  0.30598746    -0.16100
H1324       H  0.95873967  0.74252268  0.30615372     0.09100
H1325       H  0.10862171  0.70692081  0.29908716     0.07000
H1326       H  0.06140730  0.67843948  0.27391090     0.08200
H1327       H  0.07832119  0.64517574  0.29424288     0.07200
H1328       H  0.92882950  0.68163272  0.35547224     0.02100
H1329       H  0.97396204  0.70514106  0.38206326     0.02600
H1330       H  0.93722806  0.64327447  0.37628670     0.06100
H1331       H  0.09569168  0.81936804  0.38889494     0.05100
H1332       H  0.09780440  0.78519015  0.36277634    -0.00700
H1333       H  0.05663901  0.75761120  0.38594460     0.00800
H1334       H  0.96689688  0.84759856  0.29402038     0.04400
H1335       H  0.92603552  0.82336148  0.31770105     0.06400
H1336       H  0.92611880  0.78634388  0.29245700     0.07300
C1337       C  0.02370020  0.19789627  0.35173277    -0.22400
C1338       C  0.00153171  0.21038386  0.33195129     0.09600
C1339       C  0.97587097  0.17775428  0.31074724     0.10000
C1340       C  0.97361606  0.13462592  0.30953462    -0.17300
C1341       C  0.99567130  0.12164212  0.32915964    -0.27700
C1342       C  0.02071471  0.15403533  0.35080252     0.18300
C1343       C  0.00505342  0.25727089  0.33355254     0.12300
C1344       C  0.94945821  0.18772234  0.28957092    -0.12100
H1345       H  0.95335963  0.11029558  0.29310233     0.12600
C1346       C  0.04489552  0.14311738  0.37282537    -0.22900
H1347       H  0.04347912  0.22266846  0.36807170     0.08200
C1348       C  0.98369214  0.26856005  0.35198308     0.04600
C1349       C  0.98729913  0.31254178  0.35229312    -0.20100
C1350       C  0.01102683  0.34600241  0.33428540    -0.12400
C1351       C  0.03169062  0.33423995  0.31551058     0.13300
C1352       C  0.02863839  0.29051202  0.31550415    -0.22800
C1353       C  0.95654373  0.23397715  0.37122276    -0.05900
H1354       H  0.97185880  0.32112370  0.36700648     0.14800
C1355       C  0.05886361  0.36843784  0.29610373    -0.16100
H1356       H  0.04521380  0.28228141  0.30136904     0.09100
H1357       H  0.01989726  0.11293691  0.38297261     0.07000
H1358       H  0.06422362  0.17283754  0.38752918     0.08200
H1359       H  0.06920835  0.13509971  0.36508300     0.07200
H1360       H  0.97289689  0.21810879  0.27897317     0.02100
H1361       H  0.92546059  0.19509899  0.29831855     0.02600
H1362       H  0.92947130  0.15780252  0.27505243     0.06100
H1363       H  0.94086622  0.24754208  0.38372508     0.05100
H1364       H  0.97880552  0.22598082  0.38417308    -0.00700
H1365       H  0.92893549  0.20143856  0.36058291     0.00800
H1366       H  0.07380196  0.35428803  0.28341541     0.04400
H1367       H  0.08711376  0.40081838  0.30654423     0.06400
H1368       H  0.03664032  0.37671243  0.28329619     0.07300
C1369       C  0.74632652  0.03339210  0.33124620    -0.22400
C1370       C  0.73363161  0.98891896  0.32135163     0.09600
C1371       C  0.68768928  0.95561745  0.31392900     0.10000
C1372       C  0.65503806  0.96747017  0.31688217    -0.17300
C1373       C  0.66741508  0.01138420  0.32770876    -0.27700
C1374       C  0.71360456  0.04507569  0.33464249     0.18300
C1375       C  0.76919843  0.97798579  0.31905940     0.12300
C1376       C  0.67316525  0.90735788  0.30360389    -0.12100
H1377       H  0.61941440  0.94142221  0.31209166     0.12600
C1378       C  0.72938935  0.09340421  0.34542596    -0.22900
H1379       H  0.78192704  0.05888655  0.33662572     0.08200
C1380       C  0.79317966  0.98959846  0.29701165     0.04600
C1381       C  0.82916557  0.98197956  0.29656491    -0.20100
C1382       C  0.84174759  0.96304522  0.31773225    -0.12400
C1383       C  0.81474539  0.94751808  0.33878409     0.13300
C1384       C  0.77938969  0.95629123  0.33943539    -0.22800
C1385       C  0.78161118  0.01126100  0.27434743    -0.05900
H1386       H  0.84919034  0.99358076  0.28018821     0.14800
C1387       C  0.82140521  0.92096753  0.36051136    -0.16100
H1388       H  0.75956312  0.94612899  0.35593034     0.09100
H1389       H  0.75367931  0.11931276  0.33284803     0.07000
H1390       H  0.74675955  0.09890067  0.36546724     0.08200
H1391       H  0.70124141  0.10003012  0.34614029     0.07200
H1392       H  0.68362988  0.88992490  0.31849001     0.02100
H1393       H  0.68924825  0.90936047  0.28558872     0.02600
H1394       H  0.63577195  0.88556145  0.29884908     0.06100
H1395       H  0.80375039  0.01803632  0.25857900     0.05100
H1396       H  0.78590027  0.04487567  0.28103469    -0.00700
H1397       H  0.74589606  0.98754686  0.26601042     0.00800
H1398       H  0.83397940  0.94277490  0.37907686     0.04400
H1399       H  0.84504894  0.90928254  0.35652385     0.06400
H1400       H  0.78844237  0.88897881  0.36288413     0.07300
C1401       C  0.21525795  0.98151716  0.33937059    -0.22400
C1402       C  0.24937904  0.01234893  0.35843644     0.09600
C1403       C  0.24051173  0.03771561  0.37624566     0.10000
C1404       C  0.19706633  0.03157874  0.37450696    -0.17300
C1405       C  0.16277492  0.00089928  0.35523177    -0.27700
C1406       C  0.17169124  0.97463447  0.33778121     0.18300
C1407       C  0.29464488  0.01875227  0.35806679     0.12300
C1408       C  0.27688271  0.07124720  0.39683937    -0.12100
H1409       H  0.18986982  0.05098864  0.38811276     0.12600
C1410       C  0.13616276  0.93747537  0.31809206    -0.22900
H1411       H  0.22259341  0.96207291  0.32584605     0.08200
C1412       C  0.30634267  0.98848446  0.37046668     0.04600
C1413       C  0.34662445  0.99081367  0.36551183    -0.20100
C1414       C  0.37440876  0.02189222  0.34792176    -0.12400
C1415       C  0.36382824  0.05420379  0.33680341     0.13300
C1416       C  0.32394330  0.05210381  0.34210121    -0.22800
C1417       C  0.27563093  0.95291502  0.38819100    -0.05900
H1418       H  0.35532280  0.96684459  0.37439515     0.14800
C1419       C  0.39434060  0.09132313  0.31957466    -0.16100
H1420       H  0.31451027  0.07533469  0.33290353     0.09100
H1421       H  0.13519992  0.90428689  0.32120179     0.07000
H1422       H  0.14505942  0.94793366  0.29805775     0.08200
H1423       H  0.10139301  0.93000341  0.31950390     0.07200
H1424       H  0.30582978  0.09883982  0.38742414     0.02100
H1425       H  0.28903530  0.05253571  0.40964903     0.02600
H1426       H  0.26415633  0.08817580  0.40925025     0.06100
H1427       H  0.28993408  0.93201883  0.39629562     0.05100
H1428       H  0.24208308  0.92878891  0.37719901    -0.00700
H1429       H  0.27092263  0.97061528  0.40475618     0.00800
H1430       H  0.39569098  0.07546282  0.30104545     0.04400
H1431       H  0.42890745  0.11244051  0.32996281     0.06400
H1432       H  0.38205892  0.11530260  0.31437269     0.07300
C1433       C  0.05613719  0.02590487  0.19909829    -0.22400
C1434       C  0.05575852  0.98708108  0.18893671     0.09600
C1435       C  0.05437074  0.95378225  0.20610212     0.10000
C1436       C  0.05040450  0.95861236  0.23282751    -0.17300
C1437       C  0.04786280  0.99616854  0.24291854    -0.27700
C1438       C  0.05227975  0.03110610  0.22566190     0.18300
C1439       C  0.05488888  0.98165160  0.16005527     0.12300
C1440       C  0.05696557  0.91315698  0.19613036    -0.12100
H1441       H  0.04787133  0.93209910  0.24568752     0.12600
C1442       C  0.05289239  0.07425457  0.23465351    -0.22900
H1443       H  0.05812286  0.05177654  0.18586571     0.08200
C1444       C  0.01351926  0.95637183  0.14374540     0.04600
C1445       C  0.01379862  0.95532301  0.11641107    -0.20100
C1446       C  0.05434616  0.98054293  0.10480529    -0.12400
C1447       C  0.09593916  0.00540807  0.12127226     0.13300
C1448       C  0.09556484  0.00565379  0.14858713    -0.22800
C1449       C  0.96884511  0.93263205  0.15516561    -0.05900
H1450       H  0.98187466  0.93708708  0.10399936     0.14800
C1451       C  0.14148068  0.03189774  0.11085721    -0.16100
H1452       H  0.12728742  0.02542914  0.16105980     0.09100
H1453       H  0.01919608  0.06495643  0.24037508     0.07000
H1454       H  0.06046321  0.09904703  0.21896441     0.08200
H1455       H  0.07955074  0.09262750  0.25130011     0.07200
H1456       H  0.08928289  0.92608994  0.18740610     0.02100
H1457       H  0.02817067  0.89186182  0.18102940     0.02600
H1458       H  0.05573311  0.89039513  0.21201828     0.06100
H1459       H  0.93966459  0.91510638  0.13976847     0.05100
H1460       H  0.96529170  0.95870840  0.16630147    -0.00700
H1461       H  0.96715686  0.90602077  0.16846822     0.00800
H1462       H  0.15737366  0.06962114  0.11601625     0.04400
H1463       H  0.13946789  0.02665751  0.08944363     0.06400
H1464       H  0.16390849  0.01992485  0.11981074     0.07300
loop_ 
_geom_bond_atom_site_label_1 
_geom_bond_atom_site_label_2 
_geom_bond_distance 
_geom_bond_site_symmetry_2 
_ccdc_geom_bond_type 
O1           Ni7   1.929   1_655  S
O1           C22   1.272       .  A
O2          Ni25   1.941       .  S
O2           C11   1.277       .  A
O3           Ni7   1.895       .  S
O3          Ni25   1.906       .  S
O3          Ni19   1.918   1_455  S
O3           H26   0.966   1_565  S
C4           O21   1.282       .  A
C4           O13   1.279       .  A
C4         C1382   1.478       .  S
O5          Ni24   1.917   1_445  S
O5           C11   1.268   1_545  A
O6          Ni24   1.919   1_545  S
O6            C8   1.271       .  A
Ni7          O10   1.920       .  S
Ni7          O12   1.918       .  S
C8           O18   1.281       .  A
C8         C1341   1.521       .  S
O9          Ni25   1.912       .  S
O9           C15   1.279       .  A
O10          C15   1.279       .  A
C11        C1437   1.505       .  S
O12          C14   1.272       .  A
O13         Ni24   1.910       .  S
C14          O20   1.282       .  A
C14        C1318   1.512       .  S
C15        C1405   1.467   1_565  S
H16          O17   0.966       .  S
O17         Ni25   1.912   1_655  S
O17         Ni19   1.901       .  S
O17         Ni24   1.886       .  S
O18         Ni19   1.964   1_545  S
Ni19         O23   1.929       .  S
Ni19         O21   1.923       .  S
O20         Ni25   1.963       .  S
C22          O23   1.275       .  A
C22        C1286   1.502       .  S
O27         Ni33   1.918   1_655  S
O27          C48   1.267       .  A
O28         Ni51   1.927       .  S
O28          C37   1.273       .  A
O29         Ni33   1.900       .  S
O29         Ni51   1.902       .  S
O29         Ni45   1.910   1_455  S
O29          H52   0.966       .  S
C30          O47   1.276       .  A
C30          O39   1.278       .  A
C30        C1181   1.458       .  S
O31         Ni50   1.924   1_455  S
O31          C37   1.270       .  A
O32         Ni50   1.919   1_455  S
O32          C34   1.271       .  A
Ni33         O36   1.910       .  S
Ni33         O38   1.914       .  S
C34          O44   1.280       .  A
C34        C1309   1.511       .  S
O35         Ni51   1.911       .  S
O35          C41   1.278       .  A
O36          C41   1.277       .  A
C37        C1254   1.486       .  S
O38          C40   1.269       .  A
O39         Ni50   1.911       .  S
C40          O46   1.283       .  A
C40        C1350   1.513       .  S
C41        C1213   1.462       .  S
H42          O43   0.966       .  S
O43         Ni51   1.915   1_655  S
O43         Ni45   1.907       .  S
O43         Ni50   1.906       .  S
O44         Ni45   1.957   1_455  S
Ni45         O49   1.921       .  S
Ni45         O47   1.905       .  S
O46         Ni51   1.967       .  S
C48          O49   1.271       .  A
C48        C1149   1.490       .  S
O53         Ni59   1.939   1_565  S
O53          C74   1.277   1_565  A
O54         Ni77   1.924   1_565  S
O54          C63   1.273       .  A
O55         Ni59   1.900       .  S
O55         Ni77   1.908       .  S
O55         Ni71   1.915       .  S
O55          H78   0.966       .  S
C56          O73   1.278       .  A
C56          O65   1.277       .  A
C56        C1414   1.471       .  S
O57         Ni76   1.928       .  S
O57          C63   1.272   1_545  A
O58         Ni76   1.920       .  S
O58          C60   1.271       .  A
Ni59         O62   1.918       .  S
Ni59         O64   1.930   1_545  S
C60          O70   1.281       .  A
C60        C1085   1.522       .  S
O61         Ni77   1.908       .  S
O61          C67   1.275       .  A
O62          C67   1.277       .  A
C63        C1126   1.490       .  S
O64          C66   1.276       .  A
O65         Ni76   1.918       .  S
C66          O72   1.286       .  A
C66        C1053   1.533       .  S
C67        C1373   1.462       .  S
H68          O69   0.967       .  S
O69         Ni77   1.914   1_565  S
O69         Ni71   1.905   1_565  S
O69         Ni76   1.905   1_565  S
O70         Ni71   1.964       .  S
Ni71         O75   1.918       .  S
Ni71         O73   1.913       .  S
O72         Ni77   1.970   1_565  S
C74          O75   1.272       .  A
C74        C1030   1.498       .  S
O79         Ni85   1.923       .  S
O79         C100   1.269       .  A
O80        Ni103   1.918       .  S
O80          C89   1.273       .  A
O81         Ni85   1.892       .  S
O81        Ni103   1.901       .  S
O81         Ni97   1.900       .  S
O81         H104   0.966       .  S
C82          O99   1.272       .  A
C82          O91   1.280       .  A
C82        C1222   1.466       .  S
O83        Ni102   1.954       .  S
O83          C89   1.282       .  A
O84        Ni102   1.933       .  S
O84          C86   1.276       .  A
Ni85         O88   1.908       .  S
Ni85         O90   1.919       .  S
C86          O96   1.282       .  A
C86        C1062   1.521       .  S
O87        Ni103   1.914       .  S
O87          C93   1.280       .  A
O88          C93   1.275       .  A
C89         C989   1.516       .  S
O90          C92   1.270       .  A
O91        Ni102   1.933       .  S
C92          O98   1.284       .  A
C92        C1094   1.514       .  S
C93        C1190   1.476       .  S
H94          O95   0.967       .  S
O95        Ni103   1.904       .  S
O95         Ni97   1.910       .  S
O95        Ni102   1.908       .  S
O96         Ni97   1.968       .  S
Ni97        O101   1.930       .  S
Ni97         O99   1.894       .  S
O98        Ni103   1.972       .  S
C100        O101   1.274       .  A
C100        C957   1.501       .  S
O105       Ni111   1.928       .  S
O105        C126   1.274   1_545  A
O106       Ni129   1.919       .  S
O106        C115   1.270   1_545  A
O107       Ni111   1.894       .  S
O107       Ni129   1.898   1_554  S
O107       Ni123   1.915   1_545  S
O107        H130   0.966   1_445  S
C108        O125   1.281       .  A
C108        O117   1.278   1_554  A
C108        C870   1.479       .  S
O109       Ni128   1.933       .  S
O109        C115   1.275       .  A
O110       Ni128   1.918   1_655  S
O110        C112   1.273       .  A
Ni111       O114   1.918       .  S
Ni111       O116   1.924       .  S
C112        O122   1.285   1_556  A
C112        C797   1.523       .  S
O113       Ni129   1.923       .  S
O113        C119   1.281   1_556  A
O114        C119   1.279       .  A
C115        C925   1.504   1_565  S
O116        C118   1.271       .  A
O117       Ni128   1.919       .  S
C118        O124   1.279   1_554  A
C118        C829   1.518       .  S
C119        C893   1.474   1_554  S
H120        O121   0.967       .  S
O121       Ni129   1.917   1_565  S
O121       Ni123   1.911   1_556  S
O121       Ni128   1.897       .  S
O122       Ni123   1.972   1_655  S
Ni123       O127   1.934       .  S
Ni123       O125   1.925       .  S
O124       Ni129   1.957       .  S
C126        O127   1.279       .  A
C126       C1446   1.492       .  S
O131       Ni137   1.924   1_655  S
O131        C152   1.268       .  A
O132       Ni155   1.918       .  S
O132        C141   1.270       .  A
O133       Ni137   1.899       .  S
O133       Ni155   1.902   1_556  S
O133       Ni149   1.920   1_455  S
O133        H156   0.966       .  S
C134        O151   1.279       .  A
C134        O143   1.277   1_556  A
C134        C701   1.486       .  S
O135       Ni154   1.928   1_455  S
O135        C141   1.268       .  A
O136       Ni154   1.897       .  S
O136        C138   1.267   1_554  A
Ni137       O140   1.924       .  S
Ni137       O142   1.894       .  S
C138        O148   1.272       .  A
C138        C902   1.474       .  S
O139       Ni155   1.934       .  S
O139        C145   1.282   1_554  A
O140        C145   1.280       .  A
C141       C1245   1.482       .  S
O142        C144   1.265       .  A
O143       Ni154   1.928       .  S
C144        O150   1.273   1_556  A
C144        C861   1.480   1_556  S
C145        C733   1.492   1_556  S
H146        O147   0.966       .  S
O147       Ni155   1.925   1_655  S
O147       Ni149   1.913   1_554  S
O147       Ni154   1.909       .  S
O148       Ni149   1.932       .  S
Ni149       O153   1.918       .  S
Ni149       O151   1.931       .  S
O150       Ni155   1.934       .  S
C152        O153   1.270       .  A
C152        C765   1.480       .  S
O157       Ni163   1.928       .  S
O157        C178   1.270   1_545  A
O158       Ni181   1.929       .  S
O158        C167   1.274       .  A
O159       Ni163   1.904   1_565  S
O159       Ni181   1.924   1_554  S
O159       Ni175   1.909       .  S
O159        H182   0.967       .  S
C160        O177   1.273       .  A
C160        O169   1.276   1_554  A
C160        C605   1.470       .  S
O161       Ni180   1.930       .  S
O161        C167   1.270       .  A
O162       Ni180   1.910       .  S
O162        C164   1.268       .  A
Ni163       O166   1.915       .  S
Ni163       O168   1.899       .  S
C164        O174   1.272   1_556  A
C164        C742   1.477   1_556  S
O165       Ni181   1.898   1_545  S
O165        C171   1.267       .  A
O166        C171   1.272   1_554  A
C167        C678   1.505       .  S
O168        C170   1.268   1_554  A
O169       Ni180   1.908       .  S
C170        O176   1.282       .  A
C170        C710   1.494       .  S
C171        C637   1.457       .  S
H172        O173   0.965       .  S
O173       Ni181   1.895       .  S
O173       Ni175   1.906   1_556  S
O173       Ni180   1.900       .  S
O174       Ni175   1.931       .  S
Ni175       O179   1.915       .  S
Ni175       O177   1.910       .  S
O176       Ni181   1.963   1_545  S
C178        O179   1.270       .  A
C178       C1117   1.492       .  S
O183       Ni189   1.906       .  S
O183        C204   1.268       .  A
O184       Ni207   1.937       .  S
O184        C193   1.275       .  A
O185       Ni189   1.900       .  S
O185       Ni207   1.902   1_554  S
O185       Ni201   1.930       .  S
O185        H208   0.967       .  S
C186        O203   1.287   1_556  A
C186        O195   1.276       .  A
C186        C646   1.473       .  S
O187       Ni206   1.925       .  S
O187        C193   1.271       .  A
O188       Ni206   1.926       .  S
O188        C190   1.272       .  A
Ni189       O192   1.910       .  S
Ni189       O194   1.918       .  S
C190        O200   1.281   1_556  A
C190        C838   1.517       .  S
O191       Ni207   1.915       .  S
O191        C197   1.280   1_556  A
O192        C197   1.279       .  A
C193        C582   1.498       .  S
O194        C196   1.271       .  A
O195       Ni206   1.905       .  S
C196        O202   1.285   1_554  A
C196        C806   1.524   1_554  S
C197        C614   1.472       .  S
H198        O199   0.968       .  S
O199       Ni207   1.920       .  S
O199       Ni201   1.914   1_556  S
O199       Ni206   1.902       .  S
O200       Ni201   1.959       .  S
Ni201       O205   1.952       .  S
Ni201       O203   1.935       .  S
O202       Ni207   1.971       .  S
C204        O205   1.277       .  A
C204        C998   1.510       .  S
O209       Ni215   1.926   1_655  S
O209        C230   1.272       .  A
O210       Ni233   1.927       .  S
O210        C219   1.275       .  A
O211       Ni215   1.896   1_655  S
O211       Ni233   1.902   1_655  S
O211       Ni227   1.941       .  S
O211        H234   0.966   1_545  S
C212        O229   1.290       .  A
C212        O221   1.280       .  A
C212        C518   1.508       .  S
O213       Ni232   1.927   1_565  S
O213        C219   1.274   1_665  A
O214       Ni232   1.918   1_565  S
O214        C216   1.272       .  A
Ni215       O218   1.934       .  S
Ni215       O220   1.915       .  S
C216        O226   1.281       .  A
C216        C454   1.509       .  S
O217       Ni233   1.957       .  S
O217        C223   1.288       .  A
O218        C223   1.281       .  A
C219        C934   1.488       .  S
O220        C222   1.270       .  A
O221       Ni232   1.928       .  S
C222        O228   1.281       .  A
C222        C477   1.504       .  S
C223        C550   1.503       .  S
H224        O225   0.966       .  S
O225       Ni233   1.944   1_655  S
O225       Ni227   1.906       .  S
O225       Ni232   1.898       .  S
O226       Ni227   1.957   1_565  S
Ni227       O231   1.935   1_545  S
Ni227       O229   1.967       .  S
O228       Ni233   1.957       .  S
C230        O231   1.277   1_545  A
C230       C1277   1.494       .  S
O235       Ni241   1.939       .  S
O235        C256   1.273   1_455  A
O236       Ni259   1.914   1_455  S
O236        C245   1.269   1_455  A
O237       Ni241   1.902   1_655  S
O237       Ni259   1.903       .  S
O237       Ni253   1.889       .  S
O237        H260   0.972       .  S
C238        O255   1.269       .  A
C238        O247   1.275       .  A
C238        C326   1.469       .  S
O239       Ni258   1.931       .  S
O239        C245   1.273       .  A
O240       Ni258   1.921       .  S
O240        C242   1.271       .  A
Ni241       O244   1.918       .  S
Ni241       O246   1.921       .  S
C242        O252   1.279       .  A
C242        C381   1.504       .  S
O243       Ni259   1.897   1_455  S
O243        C249   1.272       .  A
O244        C249   1.280       .  A
C245       C1158   1.497       .  S
O246        C248   1.270       .  A
O247       Ni258   1.917       .  S
C248        O254   1.281       .  A
C248        C413   1.510       .  S
C249        C358   1.479       .  S
H250        O251   0.975       .  S
O251       Ni259   1.900       .  S
O251       Ni253   1.904       .  S
O251       Ni258   1.911       .  S
O252       Ni253   1.961       .  S
Ni253       O257   1.905       .  S
Ni253       O255   1.885       .  S
O254       Ni259   1.963   1_455  S
C256        O257   1.267       .  A
C256        C774   1.498       .  S
O261       Ni267   1.916   1_565  S
O261        C282   1.272       .  A
O262       Ni285   1.925       .  S
O262        C271   1.269       .  A
O263       Ni267   1.905       .  S
O263       Ni285   1.897       .  S
O263       Ni279   1.913   1_545  S
O263        H286   0.966       .  S
C264        O281   1.277       .  A
C264        O273   1.276       .  A
C264        C349   1.459       .  S
O265       Ni284   1.920   1_545  S
O265        C271   1.268       .  A
O266       Ni284   1.921   1_545  S
O266        C268   1.272       .  A
Ni267       O270   1.901       .  S
Ni267       O272   1.931   1_545  S
C268        O278   1.278       .  A
C268        C541   1.511       .  S
O269       Ni285   1.913       .  S
O269        C275   1.282       .  A
O270        C275   1.275       .  A
C271       C1021   1.485       .  S
O272        C274   1.274       .  A
O273       Ni284   1.915       .  S
C274        O280   1.276   1_565  A
C274        C509   1.523       .  S
C275        C317   1.453       .  S
H276        O277   0.966       .  S
O277       Ni285   1.922   1_565  S
O277       Ni279   1.909       .  S
O277       Ni284   1.915       .  S
O278       Ni279   1.946   1_545  S
Ni279       O283   1.928       .  S
Ni279       O281   1.903       .  S
O280       Ni285   1.947       .  S
C282        O283   1.271       .  A
C282        C669   1.502       .  S
O287       Ni293   1.925       .  S
O287        C308   1.273       .  A
O288       Ni311   1.928       .  S
O288        C297   1.275       .  A
O289       Ni293   1.912       .  S
O289       Ni311   1.910       .  S
O289       Ni305   1.949       .  S
O289        H312   0.967       .  S
C290        O307   1.289       .  A
C290        O299   1.283       .  A
C290        C390   1.530       .  S
O291       Ni310   1.932       .  S
O291        C297   1.273       .  A
O292       Ni310   1.916       .  S
O292        C294   1.269       .  A
Ni293       O296   1.930       .  S
Ni293       O298   1.921       .  S
C294        O304   1.281       .  A
C294        C445   1.504       .  S
O295       Ni311   1.966       .  S
O295        C301   1.290       .  A
O296        C301   1.280       .  A
C297        C573   1.489       .  S
O298        C300   1.272       .  A
O299       Ni310   1.940       .  S
C300        O306   1.280       .  A
C300        C486   1.509       .  S
C301        C422   1.516       .  S
H302        O303   0.966       .  S
O303       Ni311   1.947       .  S
O303       Ni305   1.907       .  S
O303       Ni310   1.909       .  S
O304       Ni305   1.962       .  S
Ni305       O309   1.929       .  S
Ni305       O307   1.962       .  S
O306       Ni311   1.956       .  S
C308        O309   1.274       .  A
C308        C966   1.507       .  S
C313        C314   1.394       .  A
C313        C318   1.393       .  A
C313        H323   1.085       .  S
C314        C319   1.454       .  S
C314        C315   1.409       .  A
C315        C316   1.393       .  A
C315        C320   1.508       .  S
C316        C317   1.398       .  A
C316        H321   1.084       .  S
C317        C318   1.416       .  A
C318        C322   1.509       .  S
C319        C324   1.400       .  A
C319        C328   1.397       .  A
C320        H336   1.110       .  S
C320        H337   1.110       .  S
C320        H338   1.111       .  S
C322        H333   1.109       .  S
C322        H334   1.111       .  S
C322        H335   1.109       .  S
C324        C325   1.393       .  A
C324        C329   1.506       .  S
C325        C326   1.410       .  A
C325        H330   1.084       .  S
C326        C327   1.417       .  A
C327        C328   1.394       .  A
C327        C331   1.509       .  S
C328        H332   1.085       .  S
C329        H339   1.109       .  S
C329        H340   1.110       .  S
C329        H341   1.110       .  S
C331        H342   1.111       .  S
C331        H343   1.110       .  S
C331        H344   1.109       .  S
C345        C346   1.393       .  A
C345        C350   1.395       .  A
C345        H355   1.085       .  S
C346        C351   1.459       .  S
C346        C347   1.410       .  A
C347        C348   1.395       .  A
C347        C352   1.508       .  S
C348        C349   1.399       .  A
C348        H353   1.085       .  S
C349        C350   1.421       .  A
C350        C354   1.509       .  S
C351        C356   1.404       .  A
C351        C360   1.394       .  A
C352        H368   1.110       .  S
C352        H369   1.110       .  S
C352        H370   1.111       .  S
C354        H365   1.110       .  S
C354        H366   1.110       .  S
C354        H367   1.101       .  S
C356        C357   1.394       .  A
C356        C361   1.508       .  S
C357        C358   1.408       .  A
C357        H362   1.084       .  S
C358        C359   1.423       .  A
C359        C360   1.397       .  A
C359        C363   1.508       .  S
C360        H364   1.084       .  S
C361        H371   1.111       .  S
C361        H372   1.110       .  S
C361        H373   1.110       .  S
C363        H374   1.111       .  S
C363        H375   1.110       .  S
C363        H376   1.106       .  S
C377        C378   1.410       .  A
C377        C382   1.418       .  A
C377        H387   1.084       .  S
C378        C383   1.517       .  S
C378        C379   1.417       .  A
C379        C380   1.415       .  A
C379        C384   1.506       .  S
C380        C381   1.409       .  A
C380        H385   1.084       .  S
C381        C382   1.418       .  A
C382        C386   1.506       .  S
C383        C388   1.413       .  A
C383        C392   1.407       .  A
C384        H400   1.109       .  S
C384        H401   1.110       .  S
C384        H402   1.111       .  S
C386        H397   1.110       .  S
C386        H398   1.110       .  S
C386        H399   1.107       .  S
C388        C389   1.416       .  A
C388        C393   1.507       .  S
C389        C390   1.418       .  A
C389        H394   1.083       .  S
C390        C391   1.426       .  A
C391        C392   1.420       .  A
C391        C395   1.505       .  S
C392        H396   1.084       .  S
C393        H403   1.111       .  S
C393        H404   1.109       .  S
C393        H405   1.110       .  S
C395        H406   1.109       .  S
C395        H407   1.110       .  S
C395        H408   1.111       .  S
C409        C410   1.406       .  A
C409        C414   1.416       .  A
C409        H419   1.084       .  S
C410        C415   1.513       .  S
C410        C411   1.415       .  A
C411        C412   1.417       .  A
C411        C416   1.505       .  S
C412        C413   1.410       .  A
C412        H417   1.084       .  S
C413        C414   1.424       .  A
C414        C418   1.507       .  S
C415        C420   1.412       .  A
C415        C424   1.409       .  A
C416        H432   1.110       .  S
C416        H433   1.110       .  S
C416        H434   1.111       .  S
C418        H429   1.110       .  S
C418        H430   1.111       .  S
C418        H431   1.104       .  S
C420        C421   1.413       .  A
C420        C425   1.506       .  S
C421        C422   1.415       .  A
C421        H426   1.084       .  S
C422        C423   1.423       .  A
C423        C424   1.421       .  A
C423        C427   1.506       .  S
C424        H428   1.084       .  S
C425        H435   1.111       .  S
C425        H436   1.110       .  S
C425        H437   1.110       .  S
C427        H438   1.111       .  S
C427        H439   1.105       .  S
C427        H440   1.110       .  S
C441        C442   1.403       .  A
C441        C446   1.414       .  A
C441        H451   1.084       .  S
C442        C447   1.507       .  S
C442        C443   1.417       .  A
C443        C444   1.417       .  A
C443        C448   1.507       .  S
C444        C445   1.408       .  A
C444        H449   1.084       .  S
C445        C446   1.421       .  A
C446        C450   1.504       .  S
C447        C452   1.415       .  A
C447        C456   1.403       .  A
C448        H464   1.111       .  S
C448        H465   1.108       .  S
C448        H466   1.111       .  S
C450        H461   1.106       .  S
C450        H462   1.111       .  S
C450        H463   1.109       .  S
C452        C453   1.414       .  A
C452        C457   1.507       .  S
C453        C454   1.412       .  A
C453        H458   1.084       .  S
C454        C455   1.427       .  A
C455        C456   1.414       .  A
C455        C459   1.508       .  S
C456        H460   1.084       .  S
C457        H467   1.111       .  S
C457        H468   1.110       .  S
C457        H469   1.108       .  S
C459        H470   1.110       .  S
C459        H471   1.102       .  S
C459        H472   1.110       .  S
C473        C474   1.406       .  A
C473        C478   1.414       .  A
C473        H483   1.084       .  S
C474        C479   1.511       .  S
C474        C475   1.416       .  A
C475        C476   1.416       .  A
C475        C480   1.505       .  S
C476        C477   1.410       .  A
C476        H481   1.084       .  S
C477        C478   1.420       .  A
C478        C482   1.507       .  S
C479        C484   1.416       .  A
C479        C488   1.405       .  A
C480        H496   1.110       .  S
C480        H497   1.110       .  S
C480        H498   1.111       .  S
C482        H493   1.110       .  S
C482        H494   1.111       .  S
C482        H495   1.108       .  S
C484        C485   1.416       .  A
C484        C489   1.506       .  S
C485        C486   1.409       .  A
C485        H490   1.084       .  S
C486        C487   1.423       .  A
C487        C488   1.416       .  A
C487        C491   1.506       .  S
C488        H492   1.084       .  S
C489        H499   1.111       .  S
C489        H500   1.110       .  S
C489        H501   1.111       .  S
C491        H502   1.109       .  S
C491        H503   1.108       .  S
C491        H504   1.111       .  S
C505        C506   1.402       .  A
C505        C510   1.417       .  A
C505        H515   1.084       .  S
C506        C511   1.511       .  S
C506        C507   1.414   1_545  A
C507        C508   1.417       .  A
C507        C512   1.505       .  S
C508        C509   1.413       .  A
C508        H513   1.083       .  S
C509        C510   1.430   1_565  A
C510        C514   1.505       .  S
C511        C516   1.415   1_545  A
C511        C520   1.405       .  A
C512        H528   1.110       .  S
C512        H529   1.110       .  S
C512        H530   1.111       .  S
C514        H525   1.108       .  S
C514        H526   1.111       .  S
C514        H527   1.110       .  S
C516        C517   1.418       .  A
C516        C521   1.504       .  S
C517        C518   1.409   1_565  A
C517        H522   1.081       .  S
C518        C519   1.422       .  A
C519        C520   1.413       .  A
C519        C523   1.507       .  S
C520        H524   1.084       .  S
C521        H531   1.111       .  S
C521        H532   1.110       .  S
C521        H533   1.110       .  S
C523        H534   1.111       .  S
C523        H535   1.108       .  S
C523        H536   1.110       .  S
C537        C538   1.406       .  A
C537        C542   1.417       .  A
C537        H547   1.084       .  S
C538        C543   1.506       .  S
C538        C539   1.412       .  A
C539        C540   1.412       .  A
C539        C544   1.505   1_545  S
C540        C541   1.412       .  A
C540        H545   1.084   1_545  S
C541        C542   1.424       .  A
C542        C546   1.507       .  S
C543        C548   1.415       .  A
C543        C552   1.404   1_545  A
C544        H560   1.110       .  S
C544        H561   1.110       .  S
C544        H562   1.111       .  S
C546        H557   1.111       .  S
C546        H558   1.109       .  S
C546        H559   1.110       .  S
C548        C549   1.417       .  A
C548        C553   1.505       .  S
C549        C550   1.409       .  A
C549        H554   1.084       .  S
C550        C551   1.421   1_545  A
C551        C552   1.411       .  A
C551        C555   1.507       .  S
C552        H556   1.085       .  S
C553        H563   1.111       .  S
C553        H564   1.110       .  S
C553        H565   1.110       .  S
C555        H566   1.110       .  S
C555        H567   1.108       .  S
C555        H568   1.111       .  S
C569        C570   1.404       .  A
C569        C574   1.408       .  A
C569        H579   1.084       .  S
C570        C575   1.494       .  S
C570        C571   1.414       .  A
C571        C572   1.409       .  A
C571        C576   1.506       .  S
C572        C573   1.406       .  A
C572        H577   1.084       .  S
C573        C574   1.415       .  A
C574        C578   1.506       .  S
C575        C580   1.412       .  A
C575        C584   1.401       .  A
C576        H592   1.109       .  S
C576        H593   1.110       .  S
C576        H594   1.111       .  S
C578        H589   1.111       .  S
C578        H590   1.111       .  S
C578        H591   1.108       .  S
C580        C581   1.411       .  A
C580        C585   1.506       .  S
C581        C582   1.409       .  A
C581        H586   1.084       .  S
C582        C583   1.418       .  A
C583        C584   1.407       .  A
C583        C587   1.500       .  S
C584        H588   1.084       .  S
C585        H595   1.111       .  S
C585        H596   1.109       .  S
C585        H597   1.110       .  S
C587        H598   1.110       .  S
C587        H599   1.104       .  S
C587        H600   1.111       .  S
C601        C602   1.399       .  A
C601        C606   1.400       .  A
C601        H611   1.084       .  S
C602        C607   1.465       .  S
C602        C603   1.406       .  A
C603        C604   1.395       .  A
C603        C608   1.507   1_554  S
C604        C605   1.405       .  A
C604        H609   1.084   1_554  S
C605        C606   1.417       .  A
C606        C610   1.509       .  S
C607        C612   1.402       .  A
C607        C616   1.401       .  A
C608        H624   1.110       .  S
C608        H625   1.110       .  S
C608        H626   1.111       .  S
C610        H621   1.111       .  S
C610        H622   1.109       .  S
C610        H623   1.110       .  S
C612        C613   1.396       .  A
C612        C617   1.506       .  S
C613        C614   1.409       .  A
C613        H618   1.084       .  S
C614        C615   1.414       .  A
C615        C616   1.399       .  A
C615        C619   1.508   1_554  S
C616        H620   1.085   1_554  S
C617        H627   1.111       .  S
C617        H628   1.110       .  S
C617        H629   1.110       .  S
C619        H630   1.111       .  S
C619        H631   1.110       .  S
C619        H632   1.110       .  S
C633        C634   1.398       .  A
C633        C638   1.398       .  A
C633        H643   1.085       .  S
C634        C639   1.465       .  S
C634        C635   1.407       .  A
C635        C636   1.396       .  A
C635        C640   1.507   1_556  S
C636        C637   1.403       .  A
C636        H641   1.085   1_556  S
C637        C638   1.414       .  A
C638        C642   1.507       .  S
C639        C644   1.412       .  A
C639        C648   1.390       .  A
C640        H656   1.110   1_554  S
C640        H657   1.110       .  S
C640        H658   1.111       .  S
C642        H653   1.109       .  S
C642        H654   1.110       .  S
C642        H655   1.105       .  S
C644        C645   1.402       .  A
C644        C649   1.507   1_556  S
C645        C646   1.401       .  A
C645        H650   1.084   1_556  S
C646        C647   1.424       .  A
C647        C648   1.395       .  A
C647        C651   1.510       .  S
C648        H652   1.085       .  S
C649        H659   1.111       .  S
C649        H660   1.110   1_554  S
C649        H661   1.110       .  S
C651        H662   1.109       .  S
C651        H663   1.107       .  S
C651        H664   1.111       .  S
C665        C666   1.403       .  A
C665        C670   1.414       .  A
C665        H675   1.084       .  S
C666        C671   1.495       .  S
C666        C667   1.411       .  A
C667        C668   1.405       .  A
C667        C672   1.507       .  S
C668        C669   1.408       .  A
C668        H673   1.084       .  S
C669        C670   1.425       .  A
C670        C674   1.508       .  S
C671        C676   1.412       .  A
C671        C680   1.399       .  A
C672        H688   1.110       .  S
C672        H689   1.110       .  S
C672        H690   1.111       .  S
C674        H685   1.110   1_565  S
C674        H686   1.111       .  S
C674        H687   1.110       .  S
C676        C677   1.410       .  A
C676        C681   1.506   1_565  S
C677        C678   1.409       .  A
C677        H682   1.084   1_565  S
C678        C679   1.428       .  A
C679        C680   1.409       .  A
C679        C683   1.509       .  S
C680        H684   1.084       .  S
C681        H691   1.111       .  S
C681        H692   1.110       .  S
C681        H693   1.110       .  S
C683        H694   1.111       .  S
C683        H695   1.110       .  S
C683        H696   1.109       .  S
C697        C698   1.402       .  A
C697        C702   1.408       .  A
C697        H707   1.084       .  S
C698        C703   1.491       .  S
C698        C699   1.413   1_556  A
C699        C700   1.407       .  A
C699        C704   1.507       .  S
C700        C701   1.405   1_554  A
C700        H705   1.084       .  S
C701        C702   1.420       .  A
C702        C706   1.507       .  S
C703        C708   1.411       .  A
C703        C712   1.401   1_556  A
C704        H720   1.110       .  S
C704        H721   1.110       .  S
C704        H722   1.111       .  S
C706        H717   1.110       .  S
C706        H718   1.111       .  S
C706        H719   1.104       .  S
C708        C709   1.410       .  A
C708        C713   1.505       .  S
C709        C710   1.408       .  A
C709        H714   1.082       .  S
C710        C711   1.421   1_556  A
C711        C712   1.405       .  A
C711        C715   1.509       .  S
C712        H716   1.084       .  S
C713        H723   1.111       .  S
C713        H724   1.110       .  S
C713        H725   1.110       .  S
C715        H726   1.110       .  S
C715        H727   1.109       .  S
C715        H728   1.111       .  S
C729        C730   1.401       .  A
C729        C734   1.408       .  A
C729        H739   1.085       .  S
C730        C735   1.490       .  S
C730        C731   1.411   1_554  A
C731        C732   1.404       .  A
C731        C736   1.508       .  S
C732        C733   1.408   1_556  A
C732        H737   1.084       .  S
C733        C734   1.425       .  A
C734        C738   1.509       .  S
C735        C740   1.415       .  A
C735        C744   1.402       .  A
C736        H752   1.109       .  S
C736        H753   1.111       .  S
C736        H754   1.111       .  S
C738        H749   1.111       .  S
C738        H750   1.110       .  S
C738        H751   1.100       .  S
C740        C741   1.407       .  A
C740        C745   1.507   1_554  S
C741        C742   1.402       .  A
C741        H746   1.084   1_554  S
C742        C743   1.416       .  A
C743        C744   1.404       .  A
C743        C747   1.508       .  S
C744        H748   1.084       .  S
C745        H755   1.111       .  S
C745        H756   1.109   1_556  S
C745        H757   1.110       .  S
C747        H758   1.110       .  S
C747        H759   1.107       .  S
C747        H760   1.110   1_554  S
C761        C762   1.401       .  A
C761        C766   1.404       .  A
C761        H771   1.084       .  S
C762        C767   1.483       .  S
C762        C763   1.411       .  A
C763        C764   1.404       .  A
C763        C768   1.506       .  S
C764        C765   1.403       .  A
C764        H769   1.084       .  S
C765        C766   1.418       .  A
C766        C770   1.509       .  S
C767        C772   1.407       .  A
C767        C776   1.399       .  A
C768        H784   1.110   1_655  S
C768        H785   1.110       .  S
C768        H786   1.111       .  S
C770        H781   1.110       .  S
C770        H782   1.111       .  S
C770        H783   1.108       .  S
C772        C773   1.406       .  A
C772        C777   1.506       .  S
C773        C774   1.413       .  A
C773        H778   1.083       .  S
C774        C775   1.423   1_655  A
C775        C776   1.404   1_455  A
C775        C779   1.508       .  S
C776        H780   1.085   1_655  S
C777        H787   1.109       .  S
C777        H788   1.110       .  S
C777        H789   1.110       .  S
C779        H790   1.110       .  S
C779        H791   1.110       .  S
C779        H792   1.111       .  S
C793        C794   1.410   1_554  A
C793        C798   1.423       .  A
C793        H803   1.084       .  S
C794        C799   1.517       .  S
C794        C795   1.413       .  A
C795        C796   1.414       .  A
C795        C800   1.507       .  S
C796        C797   1.416       .  A
C796        H801   1.083       .  S
C797        C798   1.422   1_556  A
C798        C802   1.505       .  S
C799        C804   1.416   1_556  A
C799        C808   1.404       .  A
C800        H816   1.110       .  S
C800        H817   1.110       .  S
C800        H818   1.111       .  S
C802        H813   1.111       .  S
C802        H814   1.110       .  S
C802        H815   1.110       .  S
C804        C805   1.420       .  A
C804        C809   1.505       .  S
C805        C806   1.414   1_554  A
C805        H810   1.083       .  S
C806        C807   1.424       .  A
C807        C808   1.417       .  A
C807        C811   1.499       .  S
C808        H812   1.084       .  S
C809        H819   1.111       .  S
C809        H820   1.110       .  S
C809        H821   1.111       .  S
C811        H822   1.110       .  S
C811        H823   1.104       .  S
C811        H824   1.111       .  S
C825        C826   1.402       .  A
C825        C830   1.415       .  A
C825        H835   1.084       .  S
C826        C831   1.513   1_554  S
C826        C827   1.418   1_554  A
C827        C828   1.419       .  A
C827        C832   1.505       .  S
C828        C829   1.410   1_556  A
C828        H833   1.083       .  S
C829        C830   1.429       .  A
C830        C834   1.509       .  S
C831        C836   1.417       .  A
C831        C840   1.401   1_556  A
C832        H848   1.110       .  S
C832        H849   1.110       .  S
C832        H850   1.111       .  S
C834        H845   1.111       .  S
C834        H846   1.109       .  S
C834        H847   1.111       .  S
C836        C837   1.421       .  A
C836        C841   1.505       .  S
C837        C838   1.412       .  A
C837        H842   1.084       .  S
C838        C839   1.424   1_556  A
C839        C840   1.413       .  A
C839        C843   1.502       .  S
C840        H844   1.084       .  S
C841        H851   1.111       .  S
C841        H852   1.110       .  S
C841        H853   1.110       .  S
C843        H854   1.102       .  S
C843        H855   1.105       .  S
C843        H856   1.111       .  S
C857        C858   1.402   1_656  A
C857        C862   1.404       .  A
C857        H867   1.084       .  S
C858        C863   1.481       .  S
C858        C859   1.408       .  A
C859        C860   1.404       .  A
C859        C864   1.506       .  S
C860        C861   1.406       .  A
C860        H865   1.082       .  S
C861        C862   1.416   1_454  A
C862        C866   1.509       .  S
C863        C868   1.411   1_554  A
C863        C872   1.400       .  A
C864        H880   1.110       .  S
C864        H881   1.110       .  S
C864        H882   1.111       .  S
C866        H877   1.111       .  S
C866        H878   1.110       .  S
C866        H879   1.108       .  S
C868        C869   1.403       .  A
C868        C873   1.507       .  S
C869        C870   1.405   1_556  A
C869        H874   1.084       .  S
C870        C871   1.417       .  A
C871        C872   1.405       .  A
C871        C875   1.507   1_455  S
C872        H876   1.084   1_455  S
C873        H883   1.111       .  S
C873        H884   1.110       .  S
C873        H885   1.110       .  S
C875        H886   1.110       .  S
C875        H887   1.110   1_655  S
C875        H888   1.111       .  S
C889        C890   1.401   1_554  A
C889        C894   1.401       .  A
C889        H899   1.085       .  S
C890        C895   1.476   1_655  S
C890        C891   1.408   1_655  A
C891        C892   1.401       .  A
C891        C896   1.506       .  S
C892        C893   1.405       .  A
C892        H897   1.085       .  S
C893        C894   1.416   1_456  A
C894        C898   1.508       .  S
C895        C900   1.409   1_455  A
C895        C904   1.400   1_556  A
C896        H912   1.110       .  S
C896        H913   1.110       .  S
C896        H914   1.111       .  S
C898        H909   1.111       .  S
C898        H910   1.110       .  S
C898        H911   1.108       .  S
C900        C901   1.404       .  A
C900        C905   1.506       .  S
C901        C902   1.404       .  A
C901        H906   1.082       .  S
C902        C903   1.416   1_656  A
C903        C904   1.400       .  A
C903        C907   1.508       .  S
C904        H908   1.085       .  S
C905        H915   1.111       .  S
C905        H916   1.110       .  S
C905        H917   1.110       .  S
C907        H918   1.110       .  S
C907        H919   1.108       .  S
C907        H920   1.111       .  S
C921        C922   1.403       .  A
C921        C926   1.413       .  A
C921        H931   1.084       .  S
C922        C927   1.491       .  S
C922        C923   1.409   1_545  A
C923        C924   1.403       .  A
C923        C928   1.508   1_455  S
C924        C925   1.410   1_565  A
C924        H929   1.083   1_455  S
C925        C926   1.425       .  A
C926        C930   1.508       .  S
C927        C932   1.410   1_455  A
C927        C936   1.405       .  A
C928        H944   1.110   1_655  S
C928        H945   1.110       .  S
C928        H946   1.111       .  S
C930        H941   1.111       .  S
C930        H942   1.110       .  S
C930        H943   1.110       .  S
C932        C933   1.403       .  A
C932        C937   1.507       .  S
C933        C934   1.406   1_655  A
C933        H938   1.084       .  S
C934        C935   1.419       .  A
C935        C936   1.412       .  A
C935        C939   1.508       .  S
C936        H940   1.084       .  S
C937        H947   1.111       .  S
C937        H948   1.110       .  S
C937        H949   1.110       .  S
C939        H950   1.110       .  S
C939        H951   1.105       .  S
C939        H952   1.111   1_545  S
C953        C954   1.399       .  A
C953        C958   1.406       .  A
C953        H963   1.084       .  S
C954        C959   1.493       .  S
C954        C955   1.412       .  A
C955        C956   1.411       .  A
C955        C960   1.505       .  S
C956        C957   1.410       .  A
C956        H961   1.084       .  S
C957        C958   1.426       .  A
C958        C962   1.510       .  S
C959        C964   1.409       .  A
C959        C968   1.402       .  A
C960        H976   1.110       .  S
C960        H977   1.110       .  S
C960        H978   1.111       .  S
C962        H973   1.110       .  S
C962        H974   1.111       .  S
C962        H975   1.110       .  S
C964        C965   1.407       .  A
C964        C969   1.507       .  S
C965        C966   1.413       .  A
C965        H970   1.083       .  S
C966        C967   1.424       .  A
C967        C968   1.411       .  A
C967        C971   1.506       .  S
C968        H972   1.084       .  S
C969        H979   1.111       .  S
C969        H980   1.110       .  S
C969        H981   1.111       .  S
C971        H982   1.108       .  S
C971        H983   1.110       .  S
C971        H984   1.111       .  S
C985        C986   1.403       .  A
C985        C990   1.414       .  A
C985        H995   1.084       .  S
C986        C991   1.504       .  S
C986        C987   1.413       .  A
C987        C988   1.411       .  A
C987        C992   1.507       .  S
C988        C989   1.413       .  A
C988        H993   1.083       .  S
C989        C990   1.427       .  A
C990        C994   1.507       .  S
C991        C996   1.412       .  A
C991       C1000   1.405       .  A
C992       H1008   1.109       .  S
C992       H1009   1.110       .  S
C992       H1010   1.111       .  S
C994       H1005   1.109       .  S
C994       H1006   1.111       .  S
C994       H1007   1.110       .  S
C996        C997   1.410       .  A
C996       C1001   1.507       .  S
C997        C998   1.411       .  A
C997       H1002   1.084       .  S
C998        C999   1.422       .  A
C999       C1000   1.415       .  A
C999       C1003   1.502       .  S
C1000      H1004   1.084       .  S
C1001      H1011   1.111       .  S
C1001      H1012   1.109       .  S
C1001      H1013   1.110       .  S
C1003      H1014   1.107       .  S
C1003      H1015   1.110       .  S
C1003      H1016   1.111       .  S
C1017      C1018   1.402       .  A
C1017      C1022   1.405       .  A
C1017      H1027   1.084   1_545  S
C1018      C1023   1.496       .  S
C1018      C1019   1.416       .  A
C1019      C1020   1.414       .  A
C1019      C1024   1.505       .  S
C1020      C1021   1.405       .  A
C1020      H1025   1.084       .  S
C1021      C1022   1.414       .  A
C1022      C1026   1.507   1_545  S
C1023      C1028   1.412       .  A
C1023      C1032   1.404       .  A
C1024      H1040   1.110       .  S
C1024      H1041   1.110       .  S
C1024      H1042   1.111       .  S
C1026      H1037   1.111       .  S
C1026      H1038   1.110       .  S
C1026      H1039   1.108       .  S
C1028      C1029   1.408       .  A
C1028      C1033   1.507       .  S
C1029      C1030   1.408       .  A
C1029      H1034   1.084       .  S
C1030      C1031   1.420       .  A
C1031      C1032   1.412       .  A
C1031      C1035   1.508       .  S
C1032      H1036   1.084       .  S
C1033      H1043   1.111       .  S
C1033      H1044   1.109       .  S
C1033      H1045   1.110       .  S
C1035      H1046   1.111       .  S
C1035      H1047   1.110       .  S
C1035      H1048   1.109       .  S
C1049      C1050   1.409       .  A
C1049      C1054   1.425       .  A
C1049      H1059   1.084       .  S
C1050      C1055   1.521       .  S
C1050      C1051   1.413       .  A
C1051      C1052   1.417       .  A
C1051      C1056   1.507       .  S
C1052      C1053   1.419       .  A
C1052      H1057   1.083       .  S
C1053      C1054   1.425       .  A
C1054      C1058   1.504       .  S
C1055      C1060   1.415       .  A
C1055      C1064   1.410       .  A
C1056      H1072   1.110       .  S
C1056      H1073   1.109       .  S
C1056      H1074   1.111       .  S
C1058      H1069   1.111       .  S
C1058      H1070   1.109       .  S
C1058      H1071   1.110       .  S
C1060      C1061   1.417       .  A
C1060      C1065   1.506       .  S
C1061      C1062   1.412       .  A
C1061      H1066   1.082       .  S
C1062      C1063   1.425       .  A
C1063      C1064   1.423       .  A
C1063      C1067   1.506       .  S
C1064      H1068   1.084       .  S
C1065      H1075   1.110       .  S
C1065      H1076   1.110       .  S
C1065      H1077   1.109       .  S
C1067      H1078   1.110       .  S
C1067      H1079   1.107       .  S
C1067      H1080   1.111       .  S
C1081      C1082   1.405       .  A
C1081      C1086   1.419       .  A
C1081      H1091   1.084       .  S
C1082      C1087   1.514       .  S
C1082      C1083   1.414       .  A
C1083      C1084   1.417       .  A
C1083      C1088   1.506       .  S
C1084      C1085   1.414       .  A
C1084      H1089   1.083       .  S
C1085      C1086   1.427       .  A
C1086      C1090   1.507       .  S
C1087      C1092   1.419       .  A
C1087      C1096   1.401       .  A
C1088      H1104   1.110       .  S
C1088      H1105   1.110       .  S
C1088      H1106   1.111       .  S
C1090      H1101   1.111       .  S
C1090      H1102   1.110       .  S
C1090      H1103   1.110       .  S
C1092      C1093   1.423       .  A
C1092      C1097   1.504       .  S
C1093      C1094   1.409       .  A
C1093      H1098   1.083       .  S
C1094      C1095   1.426       .  A
C1095      C1096   1.413       .  A
C1095      C1099   1.507       .  S
C1096      H1100   1.084       .  S
C1097      H1107   1.111       .  S
C1097      H1108   1.110       .  S
C1097      H1109   1.110       .  S
C1099      H1110   1.109       .  S
C1099      H1111   1.106       .  S
C1099      H1112   1.111       .  S
C1113      C1114   1.400   1_545  A
C1113      C1118   1.405       .  A
C1113      H1123   1.084       .  S
C1114      C1119   1.490       .  S
C1114      C1115   1.412       .  A
C1115      C1116   1.409       .  A
C1115      C1120   1.505       .  S
C1116      C1117   1.407       .  A
C1116      H1121   1.084       .  S
C1117      C1118   1.422   1_565  A
C1118      C1122   1.509       .  S
C1119      C1124   1.413       .  A
C1119      C1128   1.400       .  A
C1120      H1136   1.110       .  S
C1120      H1137   1.110       .  S
C1120      H1138   1.111       .  S
C1122      H1133   1.111       .  S
C1122      H1134   1.109       .  S
C1122      H1135   1.110       .  S
C1124      C1125   1.411       .  A
C1124      C1129   1.505       .  S
C1125      C1126   1.407       .  A
C1125      H1130   1.084       .  S
C1126      C1127   1.420       .  A
C1127      C1128   1.404       .  A
C1127      C1131   1.509       .  S
C1128      H1132   1.084       .  S
C1129      H1139   1.111       .  S
C1129      H1140   1.110       .  S
C1129      H1141   1.110       .  S
C1131      H1142   1.111       .  S
C1131      H1143   1.109   1_565  S
C1131      H1144   1.110       .  S
C1145      C1146   1.399       .  A
C1145      C1150   1.404       .  A
C1145      H1155   1.084       .  S
C1146      C1151   1.484       .  S
C1146      C1147   1.410       .  A
C1147      C1148   1.407       .  A
C1147      C1152   1.506   1_655  S
C1148      C1149   1.408       .  A
C1148      H1153   1.084   1_655  S
C1149      C1150   1.421       .  A
C1150      C1154   1.509       .  S
C1151      C1156   1.408       .  A
C1151      C1160   1.400   1_655  A
C1152      H1168   1.110       .  S
C1152      H1169   1.109   1_455  S
C1152      H1170   1.111       .  S
C1154      H1165   1.111       .  S
C1154      H1166   1.109       .  S
C1154      H1167   1.110       .  S
C1156      C1157   1.404       .  A
C1156      C1161   1.507       .  S
C1157      C1158   1.411       .  A
C1157      H1162   1.083       .  S
C1158      C1159   1.422   1_655  A
C1159      C1160   1.407       .  A
C1159      C1163   1.507       .  S
C1160      H1164   1.084       .  S
C1161      H1171   1.111       .  S
C1161      H1172   1.110       .  S
C1161      H1173   1.109       .  S
C1163      H1174   1.111       .  S
C1163      H1175   1.110       .  S
C1163      H1176   1.107       .  S
C1177      C1178   1.403       .  A
C1177      C1182   1.400       .  A
C1177      H1187   1.085       .  S
C1178      C1183   1.462       .  S
C1178      C1179   1.404       .  A
C1179      C1180   1.392       .  A
C1179      C1184   1.508       .  S
C1180      C1181   1.404       .  A
C1180      H1185   1.085       .  S
C1181      C1182   1.411       .  A
C1182      C1186   1.507       .  S
C1183      C1188   1.404       .  A
C1183      C1192   1.397       .  A
C1184      H1200   1.110       .  S
C1184      H1201   1.110       .  S
C1184      H1202   1.111       .  S
C1186      H1197   1.110       .  S
C1186      H1198   1.110       .  S
C1186      H1199   1.108       .  S
C1188      C1189   1.393       .  A
C1188      C1193   1.508       .  S
C1189      C1190   1.407       .  A
C1189      H1194   1.082       .  S
C1190      C1191   1.420       .  A
C1191      C1192   1.399       .  A
C1191      C1195   1.509       .  S
C1192      H1196   1.084       .  S
C1193      H1203   1.111       .  S
C1193      H1204   1.110       .  S
C1193      H1205   1.110       .  S
C1195      H1206   1.109       .  S
C1195      H1207   1.110       .  S
C1195      H1208   1.111       .  S
C1209      C1210   1.401       .  A
C1209      C1214   1.399       .  A
C1209      H1219   1.084       .  S
C1210      C1215   1.466       .  S
C1210      C1211   1.407       .  A
C1211      C1212   1.395       .  A
C1211      C1216   1.507       .  S
C1212      C1213   1.403       .  A
C1212      H1217   1.085       .  S
C1213      C1214   1.411       .  A
C1214      C1218   1.507       .  S
C1215      C1220   1.407       .  A
C1215      C1224   1.398       .  A
C1216      H1232   1.110       .  S
C1216      H1233   1.110       .  S
C1216      H1234   1.111       .  S
C1218      H1229   1.109       .  S
C1218      H1230   1.111       .  S
C1218      H1231   1.110       .  S
C1220      C1221   1.395       .  A
C1220      C1225   1.508       .  S
C1221      C1222   1.403       .  A
C1221      H1226   1.084       .  S
C1222      C1223   1.420       .  A
C1223      C1224   1.398       .  A
C1223      C1227   1.510       .  S
C1224      H1228   1.085       .  S
C1225      H1235   1.111       .  S
C1225      H1236   1.109       .  S
C1225      H1237   1.110       .  S
C1227      H1238   1.110       .  S
C1227      H1239   1.103       .  S
C1227      H1240   1.110       .  S
C1241      C1242   1.404       .  A
C1241      C1246   1.406       .  A
C1241      H1251   1.084       .  S
C1242      C1247   1.493       .  S
C1242      C1243   1.414       .  A
C1243      C1244   1.408       .  A
C1243      C1248   1.506       .  S
C1244      C1245   1.406       .  A
C1244      H1249   1.084       .  S
C1245      C1246   1.413       .  A
C1246      C1250   1.508       .  S
C1247      C1252   1.413       .  A
C1247      C1256   1.404       .  A
C1248      H1264   1.109       .  S
C1248      H1265   1.110       .  S
C1248      H1266   1.111       .  S
C1250      H1261   1.110       .  S
C1250      H1262   1.111   1_455  S
C1250      H1263   1.111   1_455  S
C1252      C1253   1.407       .  A
C1252      C1257   1.507       .  S
C1253      C1254   1.407       .  A
C1253      H1258   1.084       .  S
C1254      C1255   1.419       .  A
C1255      C1256   1.407       .  A
C1255      C1259   1.508   1_455  S
C1256      H1260   1.084       .  S
C1257      H1267   1.111       .  S
C1257      H1268   1.109       .  S
C1257      H1269   1.110       .  S
C1259      H1270   1.111       .  S
C1259      H1271   1.105       .  S
C1259      H1272   1.110   1_655  S
C1273      C1274   1.401   1_545  A
C1273      C1278   1.407       .  A
C1273      H1283   1.084       .  S
C1274      C1279   1.496       .  S
C1274      C1275   1.416       .  A
C1275      C1276   1.411       .  A
C1275      C1280   1.506       .  S
C1276      C1277   1.406   1_565  A
C1276      H1281   1.084       .  S
C1277      C1278   1.421       .  A
C1278      C1282   1.509       .  S
C1279      C1284   1.414   1_565  A
C1279      C1288   1.399       .  A
C1280      H1296   1.109       .  S
C1280      H1297   1.110       .  S
C1280      H1298   1.111       .  S
C1282      H1293   1.110       .  S
C1282      H1294   1.111       .  S
C1282      H1295   1.109   1_655  S
C1284      C1285   1.414   1_545  A
C1284      C1289   1.505       .  S
C1285      C1286   1.410       .  A
C1285      H1290   1.084   1_565  S
C1286      C1287   1.424       .  A
C1287      C1288   1.405       .  A
C1287      C1291   1.509   1_655  S
C1288      H1292   1.084       .  S
C1289      H1299   1.111       .  S
C1289      H1300   1.109       .  S
C1289      H1301   1.110   1_545  S
C1291      H1302   1.110       .  S
C1291      H1303   1.110   1_455  S
C1291      H1304   1.111       .  S
C1305      C1306   1.406       .  A
C1305      C1310   1.417       .  A
C1305      H1315   1.084       .  S
C1306      C1311   1.512       .  S
C1306      C1307   1.415   1_455  A
C1307      C1308   1.416       .  A
C1307      C1312   1.506       .  S
C1308      C1309   1.411   1_655  A
C1308      H1313   1.084       .  S
C1309      C1310   1.423       .  A
C1310      C1314   1.506       .  S
C1311      C1316   1.413       .  A
C1311      C1320   1.410   1_455  A
C1312      H1328   1.110       .  S
C1312      H1329   1.109       .  S
C1312      H1330   1.111       .  S
C1314      H1325   1.111       .  S
C1314      H1326   1.110       .  S
C1314      H1327   1.107       .  S
C1316      C1317   1.412       .  A
C1316      C1321   1.507       .  S
C1317      C1318   1.411       .  A
C1317      H1322   1.084       .  S
C1318      C1319   1.418   1_455  A
C1319      C1320   1.422       .  A
C1319      C1323   1.504       .  S
C1320      H1324   1.084       .  S
C1321      H1331   1.111       .  S
C1321      H1332   1.110       .  S
C1321      H1333   1.109       .  S
C1323      H1334   1.110       .  S
C1323      H1335   1.110       .  S
C1323      H1336   1.111       .  S
C1337      C1338   1.412       .  A
C1337      C1342   1.424       .  A
C1337      H1347   1.083       .  S
C1338      C1343   1.518       .  S
C1338      C1339   1.413   1_455  A
C1339      C1340   1.411       .  A
C1339      C1344   1.507       .  S
C1340      C1341   1.414       .  A
C1340      H1345   1.083       .  S
C1341      C1342   1.423   1_655  A
C1342      C1346   1.506       .  S
C1343      C1348   1.417   1_455  A
C1343      C1352   1.409       .  A
C1344      H1360   1.109       .  S
C1344      H1361   1.110       .  S
C1344      H1362   1.111       .  S
C1346      H1357   1.110       .  S
C1346      H1358   1.111       .  S
C1346      H1359   1.110       .  S
C1348      C1349   1.418       .  A
C1348      C1353   1.506       .  S
C1349      C1350   1.412   1_655  A
C1349      H1354   1.084       .  S
C1350      C1351   1.421       .  A
C1351      C1352   1.418       .  A
C1351      C1355   1.507       .  S
C1352      H1356   1.084       .  S
C1353      H1363   1.111       .  S
C1353      H1364   1.109       .  S
C1353      H1365   1.110       .  S
C1355      H1366   1.111       .  S
C1355      H1367   1.111       .  S
C1355      H1368   1.110       .  S
C1369      C1370   1.402   1_545  A
C1369      C1374   1.400       .  A
C1369      H1379   1.085       .  S
C1370      C1375   1.468       .  S
C1370      C1371   1.406       .  A
C1371      C1372   1.397       .  A
C1371      C1376   1.507       .  S
C1372      C1373   1.405   1_565  A
C1372      H1377   1.085       .  S
C1373      C1374   1.411       .  A
C1374      C1378   1.507       .  S
C1375      C1380   1.404       .  A
C1375      C1384   1.400       .  A
C1376      H1392   1.110       .  S
C1376      H1393   1.110       .  S
C1376      H1394   1.111       .  S
C1378      H1389   1.110       .  S
C1378      H1390   1.110       .  S
C1378      H1391   1.108       .  S
C1380      C1381   1.396       .  A
C1380      C1385   1.508   1_565  S
C1381      C1382   1.409       .  A
C1381      H1386   1.084       .  S
C1382      C1383   1.417       .  A
C1383      C1384   1.401       .  A
C1383      C1387   1.508       .  S
C1384      H1388   1.085       .  S
C1385      H1395   1.111       .  S
C1385      H1396   1.110       .  S
C1385      H1397   1.110   1_545  S
C1387      H1398   1.110       .  S
C1387      H1399   1.107       .  S
C1387      H1400   1.111       .  S
C1401      C1402   1.398   1_565  A
C1401      C1406   1.396       .  A
C1401      H1411   1.085       .  S
C1402      C1407   1.468       .  S
C1402      C1403   1.407       .  A
C1403      C1404   1.402       .  A
C1403      C1408   1.506       .  S
C1404      C1405   1.405       .  A
C1404      H1409   1.084       .  S
C1405      C1406   1.417   1_545  A
C1406      C1410   1.511       .  S
C1407      C1412   1.409   1_545  A
C1407      C1416   1.396       .  A
C1408      H1424   1.110       .  S
C1408      H1425   1.110       .  S
C1408      H1426   1.111       .  S
C1410      H1421   1.111       .  S
C1410      H1422   1.110       .  S
C1410      H1423   1.104       .  S
C1412      C1413   1.402       .  A
C1412      C1417   1.506       .  S
C1413      C1414   1.402   1_565  A
C1413      H1418   1.084       .  S
C1414      C1415   1.420       .  A
C1415      C1416   1.397       .  A
C1415      C1419   1.510       .  S
C1416      H1420   1.085       .  S
C1417      H1427   1.111       .  S
C1417      H1428   1.110       .  S
C1417      H1429   1.110       .  S
C1419      H1430   1.109       .  S
C1419      H1431   1.107       .  S
C1419      H1432   1.111       .  S
C1433      C1434   1.398   1_545  A
C1433      C1438   1.407       .  A
C1433      H1443   1.084       .  S
C1434      C1439   1.495       .  S
C1434      C1435   1.412       .  A
C1435      C1436   1.414       .  A
C1435      C1440   1.505       .  S
C1436      C1437   1.410       .  A
C1436      H1441   1.084       .  S
C1437      C1438   1.428   1_565  A
C1438      C1442   1.510       .  S
C1439      C1444   1.414       .  A
C1439      C1448   1.402   1_565  A
C1440      H1456   1.110       .  S
C1440      H1457   1.109       .  S
C1440      H1458   1.111       .  S
C1442      H1453   1.109       .  S
C1442      H1454   1.111       .  S
C1442      H1455   1.110       .  S
C1444      C1445   1.410       .  A
C1444      C1449   1.506   1_455  S
C1445      C1446   1.405       .  A
C1445      H1450   1.084   1_455  S
C1446      C1447   1.422   1_565  A
C1447      C1448   1.409       .  A
C1447      C1451   1.508       .  S
C1448      H1452   1.084       .  S
C1449      H1459   1.111       .  S
C1449      H1460   1.110       .  S
C1449      H1461   1.109       .  S
C1451      H1462   1.110       .  S
C1451      H1463   1.107       .  S
C1451      H1464   1.111       .  S
