geometry optimzed in LAMMPS
_audit_creation_date              2020-12-01 
_audit_creation_method            'lammps2cif' 
_symmetry_space_group_name_H-M    'P1' 
_symmetry_Int_Tables_number       1 
_symmetry_cell_setting            triclinic 
loop_ 
_symmetry_equiv_pos_as_xyz 
  x,y,z 
_cell_length_a                    35.55458596 
_cell_length_b                    35.45060268908149 
_cell_length_c                    28.21647830123807 
_cell_angle_alpha                 89.89106284155477 
_cell_angle_beta                  89.89425280318791 
_cell_angle_gamma                 89.8736420952819 
loop_ 
_atom_site_label 
_atom_site_type_symbol 
_atom_site_fract_x 
_atom_site_fract_y 
_atom_site_fract_z 
_atom_site_charge 
O1          O  0.79101008  0.80903239  0.41653675    -0.83900
O2          O  0.71334936  0.81104727  0.42783917    -0.81000
C3          C  0.71474172  0.83121653  0.46433464     0.99500
O4          O  0.72231763  0.86576134  0.46018815    -0.81000
O5          O  0.75066793  0.93124050  0.42350209    -0.83600
C6          C  0.78577592  0.93330985  0.42856077     1.04100
O7          O  0.80780832  0.91208078  0.40546496    -0.76400
O8          O  0.82696556  0.84244873  0.36914307    -0.76600
C9          C  0.82323017  0.82100442  0.40482104     1.04000
O10         O  0.78059035  0.80362459  0.31679181    -0.83900
O11         O  0.70415465  0.81804824  0.32872024    -0.81000
C12         C  0.67511140  0.83651706  0.34059689     0.99600
O13         O  0.67571669  0.85841586  0.37600975    -0.81000
O14         O  0.70904250  0.92121064  0.33890046    -0.83600
C15         C  0.73442747  0.93826331  0.31607444     1.04000
O16         O  0.76861475  0.92940545  0.32038295    -0.76400
O17         O  0.78381430  0.85905790  0.28442195    -0.76600
C18         C  0.78414439  0.82363068  0.28021413     1.04000
Cr19       Cr  0.74772719  0.81414234  0.37243682     1.93700
Cr20       Cr  0.71711243  0.89190546  0.39784978     1.93200
Cr21       Cr  0.79373066  0.88404198  0.34668245     1.39100
O22         O  0.75292152  0.86391776  0.37226491    -1.21700
O23         O  0.80411554  0.70658035  0.86574940    -0.83900
O24         O  0.75007510  0.70299196  0.79855602    -0.81000
C25         C  0.72532888  0.68952927  0.77187592     0.99500
O26         O  0.70375786  0.66374284  0.78684058    -0.81000
O27         O  0.75170072  0.60212651  0.79403624    -0.83600
C28         C  0.77390974  0.57786473  0.81095117     1.04100
O29         O  0.78570322  0.58118425  0.85321792    -0.76400
O30         O  0.82378669  0.64810046  0.85717171    -0.76600
C31         C  0.82929543  0.68297040  0.85351713     1.04000
O32         O  0.74483590  0.70191567  0.93735437    -0.83900
O33         O  0.69047403  0.70343880  0.87057578    -0.81000
C34         C  0.66715692  0.67843412  0.88415834     0.99600
O35         O  0.67472927  0.64404700  0.87888597    -0.81000
O36         O  0.71623497  0.57942703  0.88071809    -0.83600
C37         C  0.72787000  0.57670183  0.92301773     1.04000
O38         O  0.74876523  0.60187809  0.93991193    -0.76400
O39         O  0.79322465  0.66529120  0.94908140    -0.76600
C40         C  0.77059261  0.69032140  0.96402682     1.04000
Cr41       Cr  0.74749329  0.70011883  0.86796945     1.93700
Cr42       Cr  0.71413306  0.62449750  0.83716499     1.93200
Cr43       Cr  0.78524728  0.62606725  0.89768092     1.39100
O44         O  0.74906840  0.65038739  0.86743296    -1.21700
O45         O  0.19621734  0.76250144  0.69349766    -0.83900
O46         O  0.19823299  0.70970132  0.62550277    -0.81000
C47         C  0.17401035  0.68521725  0.63849193     0.99500
O48         O  0.13955858  0.69231196  0.63511838    -0.81000
O49         O  0.07366433  0.72991248  0.64090843    -0.83600
C50         C  0.07124572  0.73948589  0.68410456     1.04100
O51         O  0.09559618  0.76127435  0.70135100    -0.76400
O52         O  0.15749533  0.80871495  0.70941670    -0.76600
C53         C  0.18373322  0.78658635  0.72181498     1.04000
O54         O  0.19558203  0.82487640  0.62410068    -0.83900
O55         O  0.19358854  0.77145662  0.55502661    -0.81000
C56         C  0.18178980  0.74562993  0.52864528     0.99600
O57         O  0.15642189  0.72356940  0.54371893    -0.81000
O58         O  0.09339425  0.76940836  0.55564100    -0.83600
C59         C  0.06786482  0.78880248  0.57478876     1.04800
O60         O  0.07166113  0.79988430  0.61726960    -0.76400
O61         O  0.13603790  0.84133489  0.62038449    -0.76600
C62         C  0.17014515  0.84923981  0.61461271     1.04000
Cr63       Cr  0.19231574  0.76722882  0.62461761     1.93700
Cr64       Cr  0.11780515  0.73141086  0.59574491     1.93200
Cr65       Cr  0.11732917  0.80038389  0.65980939     1.39100
O66         O  0.14267941  0.76648778  0.62661890    -1.21700
O67         O  0.30108795  0.73196226  0.18067051    -0.83900
O68         O  0.30670827  0.80928696  0.16443518    -0.81000
C69         C  0.32053291  0.84020797  0.15030644     0.99500
O70         O  0.34266970  0.84089977  0.11513199    -0.81000
O71         O  0.40807827  0.81817801  0.15804982    -0.83600
C72         C  0.42750962  0.79604338  0.18322152     1.04100
O73         O  0.42344481  0.76069803  0.18063968    -0.76400
O74         O  0.35555153  0.73538346  0.21481296    -0.76600
C75         C  0.32044658  0.73073652  0.21781733     1.04000
O76         O  0.31001599  0.71778336  0.08311837    -0.83900
O77         O  0.30336344  0.79465233  0.06494436    -0.81000
C78         C  0.32483205  0.79508858  0.02941424     0.99600
O79         O  0.35982030  0.79200602  0.03538190    -0.81000
O80         O  0.42743009  0.77486582  0.07700259    -0.83600
C81         C  0.43402317  0.74004799  0.07346691     1.04000
O82         O  0.41510859  0.71626636  0.09693897    -0.76400
O83         O  0.34833898  0.68765589  0.13142156    -0.76600
C84         C  0.32541312  0.68743004  0.09696227     1.04000
Cr85       Cr  0.30913065  0.76364283  0.12344237     1.93700
Cr86       Cr  0.38252859  0.80341362  0.09840364     1.93200
Cr87       Cr  0.38361380  0.72785060  0.15387389     1.39100
O88         O  0.35893450  0.76479285  0.12521761    -1.21700
O89         O  0.29920140  0.20552828  0.33472457    -0.83900
O90         O  0.22389276  0.21380036  0.31129233    -0.81000
C91         C  0.22187506  0.19258583  0.27570021     0.99500
O92         O  0.22364830  0.15720687  0.28104627    -0.81000
O93         O  0.24343421  0.08971639  0.32317036    -0.83600
C94         C  0.27855404  0.08512001  0.31906524     1.04100
O95         O  0.30144532  0.10505119  0.34239776    -0.76400
O96         O  0.32591305  0.16946704  0.38782800    -0.76600
C97         C  0.32857045  0.19064180  0.35191770     1.04000
O98         O  0.27874566  0.21163604  0.43249708    -0.83900
O99         O  0.20401896  0.20958994  0.40842940    -0.81000
C100        C  0.17357891  0.19526771  0.39406356     0.99600
O101        O  0.17375570  0.17200387  0.36009274    -0.81000
O102        O  0.19727316  0.10595542  0.40394110    -0.83600
C103        C  0.21993205  0.08524817  0.42689775     1.04000
O104        O  0.25475363  0.08801911  0.41996132    -0.76400
O105        O  0.27172666  0.15558485  0.46303599    -0.76600
C106        C  0.27522866  0.19081024  0.46833598     1.04000
Cr107      Cr  0.25141665  0.20656495  0.37158302     1.93700
Cr108      Cr  0.21227350  0.13300466  0.34399599     1.93200
Cr109      Cr  0.28581571  0.13160622  0.40130063     1.39100
O110        O  0.24977640  0.15677277  0.37190989    -1.21700
O111        O  0.20649607  0.31664927  0.83559052    -0.83900
O112        O  0.28340983  0.31354147  0.81772459    -0.81000
C113        C  0.28007229  0.33173733  0.77973694     0.99500
O114        O  0.27656664  0.36714161  0.78198794    -0.81000
O115        O  0.25525941  0.43637880  0.81608929    -0.83600
C116        C  0.22034970  0.44192065  0.81325095     1.04100
O117        O  0.19746201  0.42278597  0.83794731    -0.76400
O118        O  0.17393169  0.35586768  0.88028817    -0.76600
C119        C  0.17525832  0.33052795  0.84861193     1.04000
O120        O  0.22131852  0.31566762  0.93331482    -0.83900
O121        O  0.29769679  0.32515421  0.91618148    -0.81000
C122        C  0.32764326  0.34066147  0.90163760     0.99600
O123        O  0.32712640  0.35982515  0.86368330    -0.81000
O124        O  0.29937129  0.42706390  0.89826467    -0.83600
C125        C  0.27564112  0.44618295  0.92162288     1.04000
O126        O  0.24089695  0.43944978  0.91919727    -0.76400
O127        O  0.22171310  0.37251734  0.96176897    -0.76600
C128        C  0.21941855  0.33738085  0.96828888     1.04000
Cr129      Cr  0.25221960  0.32156009  0.87539845     1.93700
Cr130      Cr  0.28682680  0.39550208  0.84203932     1.93200
Cr131      Cr  0.21145974  0.39555011  0.89781790     1.39100
O132        O  0.24996383  0.37143204  0.87165638    -1.21700
O133        O  0.80728624  0.24951563  0.55618544    -0.83900
O134        O  0.80489322  0.19399613  0.62212583    -0.81000
C135        C  0.83085709  0.17111698  0.61001179     0.99500
O136        O  0.86466558  0.17981799  0.61550955    -0.81000
O137        O  0.92779831  0.22182021  0.61395230    -0.83600
C138        C  0.93050610  0.23396606  0.57168472     1.04100
O139        O  0.90610163  0.25646906  0.55572431    -0.76400
O140        O  0.84131529  0.30030795  0.54829361    -0.76600
C141        C  0.81766271  0.27712915  0.53166856     1.04000
O142        O  0.79944284  0.30821078  0.62834336    -0.83900
O143        O  0.80302093  0.25332859  0.69421784    -0.81000
C144        C  0.81706763  0.22945495  0.72179785     0.99600
O145        O  0.84335431  0.20789037  0.70791172    -0.81000
O146        O  0.90448543  0.25577826  0.70202469    -0.83600
C147        C  0.92849555  0.27855842  0.68616599     1.04000
O148        O  0.92507130  0.29110125  0.64417761    -0.76400
O149        O  0.85705344  0.32758856  0.64196503    -0.76600
C150        C  0.82216867  0.33334967  0.64291925     1.04000
Cr151      Cr  0.80720748  0.25133196  0.62540594     1.93700
Cr152      Cr  0.88290670  0.21882228  0.65783524     1.93200
Cr153      Cr  0.88051720  0.29121723  0.59950832     1.39100
O154        O  0.85676018  0.25374289  0.62768162    -1.21700
O155        O  0.69906353  0.22887039  0.07018196    -0.83900
O156        O  0.69474203  0.30502681  0.08881235    -0.81000
C157        C  0.68022333  0.33593672  0.10166548     0.99500
O158        O  0.65739831  0.33695049  0.13621575    -0.81000
O159        O  0.59111626  0.31250568  0.09608730    -0.83600
C160        C  0.57026144  0.28981745  0.07386157     1.04100
O161        O  0.57562089  0.25465918  0.07691508    -0.76400
O162        O  0.64421430  0.23409207  0.03689472    -0.76600
C163        C  0.67952091  0.23088857  0.03321606     1.04000
O164        O  0.69232362  0.21250455  0.16763586    -0.83900
O165        O  0.69937768  0.28922791  0.18733305    -0.81000
C166        C  0.67798557  0.29027259  0.22295204     0.99600
O167        O  0.64304530  0.28756965  0.21717472    -0.81000
O168        O  0.57625340  0.26758222  0.17714180    -0.83600
C169        C  0.57173014  0.23249546  0.18193307     1.04000
O170        O  0.59082088  0.20927765  0.15781451    -0.76400
O171        O  0.65604320  0.18338737  0.11657382    -0.76600
C172        C  0.67845539  0.18229339  0.15142146     1.04000
Cr173      Cr  0.69268325  0.25908117  0.12853934     1.93700
Cr174      Cr  0.61899606  0.29827150  0.15465922     1.93200
Cr175      Cr  0.61858637  0.22318534  0.09891593     1.39100
O176        O  0.64299276  0.26023426  0.12737903    -1.21700
C177        C  0.77097820  0.19211068  0.83341371     0.14100
C178        C  0.76147947  0.22601142  0.85628475     0.01100
C179        C  0.77307324  0.26045871  0.83667590     0.16000
C180        C  0.79240296  0.26117146  0.79367020     0.25500
C181        C  0.80140552  0.22736395  0.77008923    -0.40900
C182        C  0.79124035  0.19272898  0.79071298     0.32500
C183        C  0.74018535  0.22585917  0.90121158     0.01100
F184        F  0.76479059  0.29350710  0.85867751    -0.13200
F185        F  0.79911022  0.15976732  0.76836510    -0.13700
C186        C  0.75795097  0.23749214  0.94284787     0.16000
C187        C  0.73798380  0.23912633  0.98526913     0.25500
C188        C  0.69946839  0.22932720  0.98704331    -0.40800
C189        C  0.68159281  0.21771840  0.94508433     0.32400
C190        C  0.70192729  0.21592285  0.90242584     0.14100
F191        F  0.79485650  0.24733565  0.94237939    -0.13200
F192        F  0.64483863  0.20747870  0.94546461    -0.13700
F193        F  0.75651488  0.25094428  0.02458384    -0.16000
F194        F  0.68420394  0.20518130  0.86209681    -0.14500
F195        F  0.76041233  0.15854497  0.85238365    -0.14500
F196        F  0.80190754  0.29506667  0.77458010    -0.16000
C197        C  0.69676688  0.27882195  0.35472820     0.14100
C198        C  0.73293707  0.29456813  0.35853817     0.01100
C199        C  0.74925683  0.31170551  0.31872726     0.16000
C200        C  0.73072450  0.31136744  0.27515566     0.25500
C201        C  0.69502471  0.29458048  0.27059397    -0.40900
C202        C  0.67767440  0.27922349  0.31121832     0.32500
C203        C  0.75518899  0.29072323  0.40266124     0.01100
F204        F  0.78404385  0.32722517  0.32156840    -0.13200
F205        F  0.64325087  0.26291266  0.30831871    -0.13700
C206        C  0.76621249  0.25476846  0.41829477     0.16000
C207        C  0.78832172  0.25074349  0.45884718     0.25500
C208        C  0.79972349  0.28258196  0.48485656    -0.40800
C209        C  0.78978196  0.31873790  0.46832064     0.32400
C210        C  0.76763578  0.32272373  0.42748080     0.14100
F211        F  0.75608291  0.22350348  0.39374800    -0.13200
F212        F  0.79999158  0.35004418  0.49271087    -0.13700
F213        F  0.79876852  0.21552308  0.47268789    -0.16000
F214        F  0.75758679  0.35779002  0.41270537    -0.14500
F215        F  0.68023843  0.26240162  0.39296250    -0.14500
F216        F  0.74827400  0.32694655  0.23707794    -0.16000
C217        C  0.48819267  0.28886091  0.98876931     0.14100
C218        C  0.46843868  0.32142551  0.00183276     0.01100
C219        C  0.48381442  0.34573122  0.03592491     0.16000
C220        C  0.51814009  0.33675340  0.05790551     0.25500
C221        C  0.53745950  0.30327080  0.04591536    -0.40900
C222        C  0.52241498  0.27997771  0.01021515     0.32500
C223        C  0.43197572  0.32955214  0.97890717     0.01100
F224        F  0.46519354  0.37764986  0.04857453    -0.13200
F225        F  0.54062395  0.24814252  0.99631824    -0.13700
C226        C  0.39847315  0.31505989  0.99790589     0.16000
C227        C  0.36454854  0.31866674  0.97304594     0.25500
C228        C  0.36362036  0.33655186  0.92831670    -0.40800
C229        C  0.39746306  0.35175675  0.91003611     0.32400
C230        C  0.43118637  0.34814157  0.93511106     0.14100
F231        F  0.39882130  0.29658513  0.04009239    -0.13200
F232        F  0.39832109  0.36975193  0.86752517    -0.13700
F233        F  0.33272317  0.30450889  0.99284593    -0.16000
F234        F  0.46344354  0.36197731  0.91604149    -0.14500
F235        F  0.47384701  0.26519921  0.95564525    -0.14500
F236        F  0.53145992  0.35983384  0.09232412    -0.16000
C237        C  0.02508491  0.31581156  0.71905726     0.14100
C238        C  0.03340448  0.29479014  0.75996523     0.01100
C239        C  0.00601108  0.27035302  0.77851937     0.16000
C240        C  0.97112561  0.26650449  0.75608829     0.25500
C241        C  0.96301209  0.28683254  0.71413911    -0.40900
C242        C  0.99032951  0.31199941  0.69646904     0.32500
C243        C  0.07007918  0.29984325  0.78415087     0.01100
F244        F  0.01344785  0.24930913  0.81769198    -0.13200
F245        F  0.98373472  0.33279983  0.65689513    -0.13700
C246        C  0.07110588  0.31258977  0.83120149     0.16000
C247        C  0.10534429  0.32167775  0.85248690     0.25500
C248        C  0.13948293  0.31740824  0.82745518    -0.40800
C249        C  0.13855773  0.30294399  0.78107127     0.32400
C250        C  0.10414022  0.29451008  0.75950628     0.14100
F251        F  0.03873189  0.31794521  0.85593102    -0.13200
F252        F  0.17077605  0.29878558  0.75567043    -0.13700
F253        F  0.10489396  0.33534406  0.89742396    -0.16000
F254        F  0.10402480  0.28176283  0.71416469    -0.14500
F255        F  0.05065516  0.34039414  0.70107957    -0.14500
F256        F  0.94586833  0.24196174  0.77486321    -0.16000
C257        C  0.49755831  0.23830524  0.27647618     0.14100
C258        C  0.47435144  0.20807393  0.26429524     0.01100
C259        C  0.48637461  0.18194488  0.23007229     0.16000
C260        C  0.52014512  0.18776971  0.20545403     0.25500
C261        C  0.54183315  0.22005904  0.21473683    -0.40900
C262        C  0.53119441  0.24411414  0.25223361     0.32500
C263        C  0.43729428  0.20439516  0.28696197     0.01100
F264        F  0.46467706  0.15168947  0.21935520    -0.13200
F265        F  0.55282048  0.27411344  0.26440343    -0.13700
C266        C  0.40585046  0.22290827  0.26785730     0.16000
C267        C  0.37055715  0.21932981  0.28942435     0.25500
C268        C  0.36628624  0.19727002  0.33070214    -0.40800
C269        C  0.39853378  0.17975110  0.35039328     0.32400
C270        C  0.43360414  0.18341022  0.32862291     0.14100
F271        F  0.40939651  0.24440109  0.22822588    -0.13200
F272        F  0.39637166  0.15863720  0.39049575    -0.13700
F273        F  0.34064443  0.23713608  0.26950638    -0.16000
F274        F  0.46413709  0.16642994  0.34821968    -0.14500
F275        F  0.48697233  0.26292395  0.31084191    -0.14500
F276        F  0.53032621  0.16322567  0.17082783    -0.16000
C277        C  0.10231490  0.22659576  0.48632683     0.14100
C278        C  0.06869682  0.21290788  0.46676160     0.01100
C279        C  0.06938022  0.19602676  0.42188862     0.16000
C280        C  0.10316076  0.19221183  0.39716994     0.25500
C281        C  0.13730062  0.20451267  0.41735379    -0.40900
C282        C  0.13635463  0.22250230  0.46186148     0.32500
C283        C  0.03271554  0.21650999  0.49271640     0.01100
F284        F  0.03734371  0.18212350  0.40253356    -0.13200
F285        F  0.16839391  0.23524789  0.48243533    -0.13700
C286        C  0.00265059  0.23646701  0.47244708     0.16000
C287        C  0.96870149  0.24044018  0.49691418     0.25500
C288        C  0.96430871  0.22495577  0.54273681    -0.40800
C289        C  0.99421979  0.20376181  0.56219036     0.32400
C290        C  0.02805747  0.19965031  0.53737866     0.14100
F291        F  0.00660108  0.25316561  0.42936981    -0.13200
F292        F  0.99121164  0.18756639  0.60567332    -0.13700
F293        F  0.94055432  0.26026320  0.47591671    -0.16000
F294        F  0.05633620  0.17912400  0.55700051    -0.14500
F295        F  0.10216096  0.24389772  0.52921239    -0.14500
F296        F  0.10229967  0.17591266  0.35366945    -0.16000
C297        C  0.23401158  0.31296652  0.09816818     0.14100
C298        C  0.21652768  0.27733825  0.10053595     0.01100
C299        C  0.19674643  0.26410972  0.06109836     0.16000
C300        C  0.19566799  0.28517150  0.01930242     0.25500
C301        C  0.21468798  0.31994838  0.01574476    -0.40900
C302        C  0.23306210  0.33419917  0.05602095     0.32500
C303        C  0.21726380  0.25440713  0.14456225     0.01100
F304        F  0.17832273  0.23063604  0.06314387    -0.13200
F305        F  0.25167087  0.36756785  0.05389553    -0.13700
C306        C  0.19880904  0.26764224  0.18512064     0.16000
C307        C  0.19845611  0.24614175  0.22657749     0.25500
C308        C  0.21708082  0.21098599  0.22878858    -0.40800
C309        C  0.23441701  0.19692026  0.18754864     0.32400
C310        C  0.23446061  0.21852510  0.14566868     0.14100
F311        F  0.18066619  0.30137904  0.18440155    -0.13200
F312        F  0.25269970  0.16325717  0.18832031    -0.13700
F313        F  0.17983735  0.25990559  0.26492022    -0.16000
F314        F  0.25216553  0.20495360  0.10655234    -0.14500
F315        F  0.25307611  0.32652796  0.13612614    -0.14500
F316        F  0.17625179  0.27122028  0.98184013    -0.16000
C317        C  0.27102835  0.30940956  0.64799039     0.14100
C318        C  0.27556145  0.26990541  0.64759414     0.01100
C319        C  0.28203539  0.25110139  0.69058860     0.16000
C320        C  0.28374687  0.27116450  0.73315686     0.25500
C321        C  0.27977162  0.31092931  0.73376379    -0.40900
C322        C  0.27345269  0.32971770  0.69047336     0.32500
C323        C  0.27534850  0.24862582  0.60215944     0.01100
F324        F  0.28757751  0.21317451  0.69138924    -0.13200
F325        F  0.26910599  0.36775754  0.68903956    -0.13700
C326        C  0.29925390  0.25977974  0.56508310     0.16000
C327        C  0.29944275  0.24037994  0.52218787     0.25500
C328        C  0.27639213  0.20858761  0.51559804    -0.40800
C329        C  0.25248183  0.19706798  0.55257020     0.32400
C330        C  0.25184642  0.21699721  0.59556374     0.14100
F331        F  0.32300926  0.28939520  0.57048120    -0.13200
F332        F  0.22828650  0.16788289  0.54624671    -0.13700
F333        F  0.32232438  0.25274673  0.48688793    -0.16000
F334        F  0.22749755  0.20619375  0.63010090    -0.14500
F335        F  0.26367357  0.32835802  0.60717944    -0.14500
F336        F  0.28923611  0.25130863  0.77375573    -0.16000
C337        C  0.32565958  0.99497406  0.27973616     0.14100
C338        C  0.30174144  0.98432347  0.24229029     0.01100
C339        C  0.27381668  0.00960598  0.22693760     0.16000
C340        C  0.26925692  0.04434287  0.24908759     0.25500
C341        C  0.29128427  0.05392735  0.28859121    -0.40900
C342        C  0.32033161  0.02953001  0.30293865     0.32500
C343        C  0.30537522  0.94697064  0.21911641     0.01100
F344        F  0.24942025  0.99983607  0.19210325    -0.13200
F345        F  0.34183517  0.03791161  0.34120983    -0.13700
C346        C  0.30454619  0.91342331  0.24591991     0.16000
C347        C  0.30783725  0.87830261  0.22353005     0.25500
C348        C  0.31163300  0.87624792  0.17397165    -0.40800
C349        C  0.31124489  0.90978261  0.14722230     0.32400
C350        C  0.30840486  0.94471145  0.16953363     0.14100
F351        F  0.30033166  0.91465045  0.29373263    -0.13200
F352        F  0.31393808  0.90880087  0.09921315    -0.13700
F353        F  0.30898798  0.84652346  0.25043806    -0.16000
F354        F  0.30945130  0.97647689  0.14257872    -0.14500
F355        F  0.35352245  0.97155032  0.29459243    -0.14500
F356        F  0.24195515  0.06806375  0.23321888    -0.16000
C357        C  0.33418086  0.58552681  0.05707382     0.14100
C358        C  0.30376760  0.58214798  0.02604292     0.01100
C359        C  0.27901386  0.61267156  0.01996454     0.16000
C360        C  0.28543630  0.64682049  0.04356820     0.25500
C361        C  0.31688492  0.65088709  0.07354631    -0.40900
C362        C  0.34079987  0.61946483  0.08057546     0.32500
C363        C  0.29807521  0.54648994  0.00029186     0.01100
F364        F  0.24878471  0.60941742  0.99092911    -0.13200
F365        F  0.37118141  0.62154465  0.10952995    -0.13700
C366        C  0.27244505  0.51982431  0.01751590     0.16000
C367        C  0.26713933  0.48592614  0.99337536     0.25500
C368        C  0.28713094  0.47833459  0.95127134    -0.40800
C369        C  0.31364251  0.50463909  0.93478596     0.32400
C370        C  0.31908322  0.53854625  0.95925500     0.14100
F371        F  0.25227169  0.52685943  0.05745158    -0.13200
F372        F  0.33252149  0.49857455  0.89362058    -0.13700
F373        F  0.24194619  0.46063981  0.01073223    -0.16000
F374        F  0.34397113  0.56420815  0.94218363    -0.14500
F375        F  0.35755706  0.55576935  0.06456023    -0.14500
F376        F  0.26065371  0.67560817  0.03750218    -0.16000
C377        C  0.22542208  0.01472062  0.52708419     0.14100
C378        C  0.19370269  0.99226058  0.51924727     0.01100
C379        C  0.16751814  0.00346314  0.48433473     0.16000
C380        C  0.17422554  0.03553908  0.45608086     0.25500
C381        C  0.20763582  0.05622661  0.46164850    -0.40900
C382        C  0.23258378  0.04593397  0.49839571     0.32500
C383        C  0.18902688  0.95661755  0.54655498     0.01100
F384        F  0.13646931  0.98228899  0.47595679    -0.13200
F385        F  0.26476664  0.06560365  0.50591879    -0.13700
C386        C  0.15663214  0.95052362  0.57381527     0.16000
C387        C  0.15168118  0.91649825  0.59817058     0.25500
C388        C  0.17904780  0.88747591  0.59564893    -0.40800
C389        C  0.21254102  0.89455800  0.57062971     0.32400
C390        C  0.21738955  0.92871707  0.54614495     0.14100
F391        F  0.12977688  0.97770292  0.57712155    -0.13200
F392        F  0.23990481  0.86788357  0.56802950    -0.13700
F393        F  0.11973086  0.91196282  0.62401131    -0.16000
F394        F  0.24934291  0.93402109  0.52059374    -0.14500
F395        F  0.24998930  0.00600602  0.56225743    -0.14500
F396        F  0.14929829  0.04487881  0.42158936    -0.16000
C397        C  0.23590011  0.82724958  0.82612598     0.14100
C398        C  0.24607974  0.79443204  0.85109385     0.01100
C399        C  0.23349410  0.75920693  0.83495235     0.16000
C400        C  0.21215380  0.75675820  0.79348461     0.25500
C401        C  0.20203884  0.78964373  0.76842054    -0.40900
C402        C  0.21363240  0.82491103  0.78541367     0.32500
C403        C  0.26830738  0.79715937  0.89521018     0.01100
F404        F  0.24148544  0.72728846  0.85970740    -0.13200
F405        F  0.20517183  0.85688758  0.76110366    -0.13700
C406        C  0.25311924  0.81605170  0.93440800     0.16000
C407        C  0.27272331  0.81723969  0.97713424     0.25500
C408        C  0.30783393  0.79905303  0.98180115    -0.40800
C409        C  0.32380788  0.78136477  0.94189885     0.32400
C410        C  0.30406107  0.78031614  0.89891014     0.14100
F411        F  0.21844445  0.83206085  0.93183691    -0.13200
F412        F  0.35750978  0.76345834  0.94509501    -0.13700
F413        F  0.25692435  0.83571832  0.01432467    -0.16000
F414        F  0.31953023  0.76239281  0.86109686    -0.14500
F415        F  0.24844319  0.86148522  0.84054005    -0.14500
F416        F  0.20129167  0.72225580  0.77777126    -0.16000
C417        C  0.21997046  0.69842190  0.41715956     0.14100
C418        C  0.24016524  0.72804335  0.39605433     0.01100
C419        C  0.23937308  0.76384503  0.41715337     0.16000
C420        C  0.21940567  0.76988338  0.45926689     0.25500
C421        C  0.19968098  0.74007551  0.48133059    -0.40900
C422        C  0.19980762  0.70436624  0.45933599     0.32500
C423        C  0.26137610  0.72247569  0.35128337     0.01100
F424        F  0.25789601  0.79312408  0.39664023    -0.13200
F425        F  0.18168977  0.67475849  0.47957457    -0.13700
C426        C  0.24204536  0.71792946  0.30846483     0.16000
C427        C  0.26148970  0.71872396  0.26533035     0.25500
C428        C  0.30091354  0.72446566  0.26404994    -0.40800
C429        C  0.32043370  0.72646859  0.30738866     0.32400
C430        C  0.30079176  0.72539160  0.35054909     0.14100
F431        F  0.20399282  0.71460958  0.30825428    -0.13200
F432        F  0.35834806  0.73075130  0.30816513    -0.13700
F433        F  0.24124001  0.71510887  0.22481514    -0.16000
F434        F  0.32016801  0.72806880  0.39179814    -0.14500
F435        F  0.22074118  0.66345049  0.39767245    -0.14500
F436        F  0.21935588  0.80505315  0.47828183    -0.16000
C437        C  0.16189546  0.58536732  0.68299830     0.14100
C438        C  0.19540592  0.57872843  0.70741100     0.01100
C439        C  0.22409049  0.60613410  0.70584375     0.16000
C440        C  0.21822530  0.64071101  0.68219361     0.25500
C441        C  0.18416349  0.64752918  0.65817428    -0.40900
C442        C  0.15667982  0.61872416  0.65772855     0.32500
C443        C  0.20000366  0.54267739  0.73353481     0.01100
F444        F  0.25717451  0.59988211  0.72851939    -0.13200
F445        F  0.12407031  0.62293400  0.63325962    -0.13700
C446        C  0.22466672  0.51501007  0.71636081     0.16000
C447        C  0.22856106  0.48062820  0.74021889     0.25500
C448        C  0.20808501  0.47328723  0.78208321    -0.40800
C449        C  0.18183510  0.50021520  0.79789644     0.32400
C450        C  0.17783156  0.53468206  0.77374688     0.14100
F451        F  0.24505660  0.52135427  0.67641558    -0.13200
F452        F  0.16190557  0.49424758  0.83829534    -0.13700
F453        F  0.25320260  0.45468773  0.72304647    -0.16000
F454        F  0.15325486  0.56084598  0.79049975    -0.14500
F455        F  0.13395204  0.55931932  0.68364428    -0.14500
F456        F  0.24494588  0.66793495  0.68470363    -0.16000
C457        C  0.52172455  0.69100348  0.02718559     0.14100
C458        C  0.52916241  0.71189064  0.98577310     0.01100
C459        C  0.50371484  0.74003238  0.97166974     0.16000
C460        C  0.47213186  0.74824046  0.99950091     0.25500
C461        C  0.46512483  0.72810058  0.04175971    -0.40900
C462        C  0.48988868  0.69893967  0.05489366     0.32500
C463        C  0.56359868  0.70443125  0.95751157     0.01100
F464        F  0.50936828  0.75939760  0.93070697    -0.13200
F465        F  0.48438535  0.67947412  0.09578003    -0.13700
C466        C  0.56870728  0.66934331  0.93565186     0.16000
C467        C  0.60176202  0.66146441  0.91065498     0.25500
C468        C  0.63066375  0.68866235  0.90683900    -0.40800
C469        C  0.62512326  0.72417083  0.92815891     0.32400
C470        C  0.59187594  0.73192965  0.95326158     0.14100
F471        F  0.54158990  0.64252528  0.93869514    -0.13200
F472        F  0.65246218  0.75081486  0.92659950    -0.13700
F473        F  0.60546743  0.62686051  0.89058717    -0.16000
F474        F  0.58787583  0.76581239  0.97506232    -0.14500
F475        F  0.54606133  0.66376069  0.04160926    -0.14500
F476        F  0.44824995  0.77589545  0.98502413    -0.16000
C477        C  0.99786858  0.73762832  0.78217313     0.14100
C478        C  0.96992376  0.71507410  0.76201268     0.01100
C479        C  0.97599822  0.69862528  0.71751866     0.16000
C480        C  0.00945931  0.70541010  0.69279682     0.25500
C481        C  0.03767553  0.72858785  0.71252378    -0.40900
C482        C  0.03152269  0.74424276  0.75790554     0.32500
C483        C  0.93431741  0.70888250  0.78756461     0.01100
F484        F  0.94927126  0.67632315  0.69778917    -0.13200
F485        F  0.05740236  0.76707793  0.77837334    -0.13700
C486        C  0.90206118  0.72976763  0.77569236     0.16000
C487        C  0.86805955  0.72328475  0.79945589     0.25500
C488        C  0.86591192  0.69528256  0.83465858    -0.40800
C489        C  0.89862640  0.67521971  0.84733312     0.32400
C490        C  0.93261735  0.68215909  0.82413320     0.14100
F491        F  0.90346479  0.75592779  0.74054187    -0.13200
F492        F  0.89747239  0.64842559  0.88179218    -0.13700
F493        F  0.83690295  0.74282437  0.78631000    -0.16000
F494        F  0.96369724  0.66211299  0.83645696    -0.14500
F495        F  0.99201490  0.75411741  0.82495896    -0.14500
F496        F  0.01364781  0.68999439  0.64907602    -0.16000
C497        C  0.76755108  0.40904174  0.70903228     0.14100
C498        C  0.79233567  0.43983765  0.70458217     0.01100
C499        C  0.82442996  0.43618086  0.67604055     0.16000
C500        C  0.83267997  0.40203322  0.65407198     0.25500
C501        C  0.80911864  0.37049028  0.66028176    -0.40900
C502        C  0.77584657  0.37453132  0.68687811     0.32500
C503        C  0.78659076  0.47515288  0.73169262     0.01100
F504        F  0.84896290  0.46525718  0.67128583    -0.13200
F505        F  0.75253454  0.34469166  0.69354239    -0.13700
C506        C  0.78665046  0.47443357  0.78146387     0.16000
C507        C  0.78421728  0.50802667  0.80726695     0.25500
C508        C  0.78169351  0.54305115  0.78369182    -0.40800
C509        C  0.78213645  0.54370512  0.73383915     0.32400
C510        C  0.78452987  0.51007330  0.70810812     0.14100
F511        F  0.78977901  0.44117169  0.80511927    -0.13200
F512        F  0.78050432  0.57696549  0.70998724    -0.13700
F513        F  0.78294580  0.50609537  0.85532214    -0.16000
F514        F  0.78466719  0.51153236  0.66001796    -0.14500
F515        F  0.73576230  0.41224341  0.73547503    -0.14500
F516        F  0.86447947  0.39959920  0.62748829    -0.16000
C517        C  0.73867989  0.49910350  0.01415240     0.14100
C518        C  0.71074495  0.47371580  0.99996513     0.01100
C519        C  0.68783936  0.48249042  0.96102995     0.16000
C520        C  0.69292397  0.51621860  0.93625056     0.25500
C521        C  0.72055122  0.54214404  0.95080520    -0.40900
C522        C  0.74345242  0.53311781  0.99003441     0.32500
C523        C  0.70476539  0.43845895  0.02654230     0.01100
F524        F  0.66011037  0.45856494  0.94749528    -0.13200
F525        F  0.77146301  0.55649914  0.00421789    -0.13700
C526        C  0.69272122  0.43985445  0.07384146     0.16000
C527        C  0.68464606  0.40660329  0.09838773     0.25500
C528        C  0.68975825  0.37125372  0.07639724    -0.40800
C529        C  0.70234297  0.37007010  0.02901999     0.32400
C530        C  0.70958991  0.40343683  0.00428512     0.14100
F531        F  0.68777326  0.47358169  0.09578597    -0.13200
F532        F  0.70616068  0.33671596  0.00590353    -0.13700
F533        F  0.67153747  0.40916575  0.14350022    -0.16000
F534        F  0.72118662  0.40160995  0.95845992    -0.14500
F535        F  0.76187538  0.49055727  0.05083397    -0.14500
F536        F  0.67079637  0.52338534  0.89809758    -0.16000
C537        C  0.59209499  0.79472333  0.27551746     0.14100
C538        C  0.56778455  0.82615056  0.27324116     0.01100
C539        C  0.58002356  0.86104420  0.29054232     0.16000
C540        C  0.61551783  0.86441018  0.31084434     0.25500
C541        C  0.63944852  0.83283132  0.31459909    -0.40900
C542        C  0.62776417  0.79805664  0.29605864     0.32500
C543        C  0.52925923  0.82244132  0.25418658     0.01100
F544        F  0.55698591  0.89163004  0.28946238    -0.13200
F545        F  0.65004137  0.76703367  0.29984156    -0.13700
C546        C  0.50424759  0.79631466  0.27430035     0.16000
C547        C  0.46895239  0.79048448  0.25401815     0.25500
C548        C  0.45826148  0.81051385  0.21307973    -0.40800
C549        C  0.48164177  0.83949282  0.19609332     0.32400
C550        C  0.51714229  0.84508600  0.21613417     0.14100
F551        F  0.51436736  0.77590169  0.31302948    -0.13200
F552        F  0.47145789  0.86038487  0.15781916    -0.13700
F553        F  0.44559839  0.76442906  0.27349587    -0.16000
F554        F  0.54053073  0.87105431  0.19655239    -0.14500
F555        F  0.58111088  0.76073605  0.25833814    -0.14500
F556        F  0.62636881  0.89868904  0.32726954    -0.16000
C557        C  0.92531699  0.81576229  0.44045659     0.14100
C558        C  0.92324665  0.79928135  0.48535059     0.01100
C559        C  0.88833824  0.78769777  0.50352402     0.16000
C560        C  0.85548172  0.79330466  0.47687319     0.25500
C561        C  0.85745899  0.81073508  0.43187328    -0.40900
C562        C  0.89301272  0.82130531  0.41388339     0.32500
C563        C  0.95838668  0.79439185  0.51187404     0.01100
F564        F  0.88615392  0.77115644  0.54689005    -0.13200
F565        F  0.89688217  0.83764329  0.37058777    -0.13700
C566        C  0.96817433  0.81998379  0.54757812     0.16000
C567        C  0.00430323  0.81923866  0.56710785     0.25500
C568        C  0.03122160  0.79305711  0.55070195    -0.40800
C569        C  0.02100606  0.76746738  0.51472344     0.32400
C570        C  0.98488423  0.76809966  0.49576010     0.14100
F571        F  0.94313844  0.84649182  0.56226871    -0.13200
F572        F  0.04557855  0.74109538  0.49845892    -0.13700
F573        F  0.01305546  0.84443961  0.60151965    -0.16000
F574        F  0.97582672  0.74342208  0.46084524    -0.14500
F575        F  0.95892718  0.82722682  0.42261276    -0.14500
F576        F  0.82193416  0.78253492  0.49552222    -0.16000
C577        C  0.79107998  0.74648307  0.18705170     0.14100
C578        C  0.78796308  0.76700768  0.14472278     0.01100
C579        C  0.78634408  0.80666179  0.14679826     0.16000
C580        C  0.78641551  0.82537180  0.19058855     0.25500
C581        C  0.78815567  0.80473480  0.23327610    -0.40900
C582        C  0.79136915  0.76499204  0.23073850     0.32500
C583        C  0.78388379  0.74684652  0.09885822     0.01100
F584        F  0.78422878  0.82728264  0.10629433    -0.13200
F585        F  0.79391879  0.74359741  0.27058450    -0.13700
C586        C  0.75132454  0.75208622  0.07163428     0.16000
C587        C  0.74680505  0.73315570  0.02864781     0.25500
C588        C  0.77467102  0.70794970  0.01180672    -0.40800
C589        C  0.80670862  0.70160041  0.04020202     0.32400
C590        C  0.81139987  0.72118069  0.08302599     0.14100
F591        F  0.72337439  0.77516412  0.08716163    -0.13200
F592        F  0.83381960  0.67693184  0.02638959    -0.13700
F593        F  0.71479087  0.73962318  0.00370987    -0.16000
F594        F  0.84321429  0.71561691  0.10867058    -0.14500
F595        F  0.79212840  0.70819434  0.18626702    -0.14500
F596        F  0.78366444  0.86357418  0.19105068    -0.16000
C597        C  0.74894113  0.73860960  0.65674649     0.14100
C598        C  0.71304659  0.74591413  0.63803612     0.01100
C599        C  0.68130304  0.73057433  0.66088840     0.16000
C600        C  0.68532551  0.71027474  0.70326459     0.25500
C601        C  0.72105014  0.70559971  0.72379641    -0.40900
C602        C  0.75288123  0.71907585  0.69942189     0.32500
C603        C  0.70918984  0.77005065  0.59526434     0.01100
F604        F  0.64627276  0.73651243  0.64328621    -0.13200
F605        F  0.78796888  0.71324276  0.71689285    -0.13700
C606        C  0.68992630  0.75697933  0.55515371     0.16000
C607        C  0.68927640  0.77846727  0.51363768     0.25500
C608        C  0.70872999  0.81305312  0.51094404    -0.40800
C609        C  0.72645659  0.82698859  0.55174825     0.32400
C610        C  0.72645117  0.80578391  0.59360922     0.14100
F611        F  0.67352770  0.72242460  0.55515207    -0.13200
F612        F  0.74582909  0.85992975  0.55040209    -0.13700
F613        F  0.67060346  0.76470723  0.47545396    -0.16000
F614        F  0.74432990  0.81969769  0.63227539    -0.14500
F615        F  0.78031460  0.75045759  0.63359658    -0.14500
F616        F  0.65412569  0.69695707  0.72541721    -0.16000
C617        C  0.83124883  0.02288231  0.47187613     0.14100
C618        C  0.81138322  0.02862421  0.51440818     0.01100
C619        C  0.78787211  0.00010864  0.53177190     0.16000
C620        C  0.78216108  0.96731800  0.50536029     0.25500
C621        C  0.79988514  0.96257107  0.46107581    -0.40900
C622        C  0.82538511  0.99007469  0.44517097     0.32500
C623        C  0.81487949  0.06448507  0.54057204     0.01100
F624        F  0.76976034  0.00449977  0.57382428    -0.13200
F625        F  0.84232882  0.98656659  0.40223679    -0.13700
C626        C  0.78693359  0.09254704  0.53708054     0.16000
C627        C  0.79088139  0.12687120  0.56135364     0.25500
C628        C  0.82295347  0.13354248  0.58920899    -0.40800
C629        C  0.85040670  0.10475645  0.59318815     0.32400
C630        C  0.84629508  0.07069227  0.56914374     0.14100
F631        F  0.75647417  0.08706478  0.50900741    -0.13200
F632        F  0.88168275  0.10969471  0.62000345    -0.13700
F633        F  0.76435109  0.15411905  0.55565893    -0.16000
F634        F  0.87328093  0.04373678  0.57345914    -0.14500
F635        F  0.85499110  0.04981613  0.45532442    -0.14500
F636        F  0.75822552  0.94066209  0.52218849    -0.16000
C637        C  0.72905845  0.10572019  0.22105122     0.14100
C638        C  0.70635085  0.07435917  0.21160913     0.01100
C639        C  0.67533538  0.07806282  0.18155184     0.16000
C640        C  0.66648551  0.11303402  0.16172504     0.25500
C641        C  0.68867702  0.14508144  0.17177047    -0.40900
C642        C  0.72029591  0.14090849  0.20139132     0.32500
C643        C  0.71276483  0.03855501  0.23659059     0.01100
F644        F  0.65313123  0.04783684  0.17227572    -0.13200
F645        F  0.74270585  0.17077241  0.21148561    -0.13700
C646        C  0.69220902  0.03076132  0.27787378     0.16000
C647        C  0.69802298  0.99712152  0.30246623     0.25500
C648        C  0.72480658  0.97094711  0.28629239    -0.40800
C649        C  0.74521030  0.97865007  0.24451880     0.32400
C650        C  0.73911019  0.01231200  0.21972251     0.14100
F651        F  0.66738889  0.05643858  0.29520253    -0.13200
F652        F  0.77116073  0.95374071  0.22796633    -0.13700
F653        F  0.67917462  0.99121619  0.34369823    -0.16000
F654        F  0.75919585  0.01959385  0.17976907    -0.14500
F655        F  0.75917893  0.10236170  0.25026675    -0.14500
F656        F  0.63543982  0.11556104  0.13391200    -0.16000
loop_ 
_geom_bond_atom_site_label_1 
_geom_bond_atom_site_label_2 
_geom_bond_distance 
_geom_bond_site_symmetry_2 
_ccdc_geom_bond_type 
O1          Cr19   1.989       .  S
O1            C9   1.266       .  A
O2          Cr19   1.986       .  S
O2            C3   1.256       .  A
C3            O4   1.260       .  A
C3          C608   1.479       .  S
O4          Cr20   1.995       .  S
O5          Cr20   1.976       .  S
O5            C6   1.259       .  A
C6            O7   1.266       .  A
C6          C621   1.475       .  S
O7          Cr21   2.000       .  S
O8          Cr21   1.991       .  S
O8            C9   1.267       .  A
C9          C561   1.482       .  S
O10         Cr19   1.991       .  S
O10          C18   1.258       .  A
O11         Cr19   1.987       .  S
O11          C12   1.266       .  A
C12          O13   1.267       .  A
C12         C541   1.472       .  S
O13         Cr20   1.992       .  S
O14         Cr20   1.980       .  S
O14          C15   1.262       .  A
C15          O16   1.261       .  A
C15         C648   1.470       .  S
O16         Cr21   1.981       .  S
O17         Cr21   2.001       .  S
O17          C18   1.262       .  A
C18         C581   1.492       .  S
Cr19         O22   1.775       .  S
Cr20         O22   1.766       .  S
Cr21         O22   1.770       .  S
O23         Cr41   2.028       .  S
O23          C31   1.272       .  A
O24         Cr41   1.963       .  S
O24          C25   1.255       .  A
C25          O26   1.266       .  A
C25         C601   1.478       .  S
O26         Cr42   2.020       .  S
O27         Cr42   1.972       .  S
O27          C28   1.260       .  A
C28          O29   1.271       .  A
C28         C508   1.481       .  S
O29         Cr43   2.028       .  S
O30         Cr43   1.947       .  S
O30          C31   1.256       .  A
C31         C488   1.472       .  S
O32         Cr41   1.961       .  S
O32          C40   1.254       .  A
O33         Cr41   2.032       .  S
O33          C34   1.273       .  A
C34          O35   1.257       .  A
C34         C468   1.490       .  S
O35         Cr42   1.955       .  S
O36         Cr42   2.015       .  S
O36          C37   1.267       .  A
C37          O38   1.258       .  A
C37         C521   1.477       .  S
O38         Cr43   1.958       .  S
O39         Cr43   2.032       .  S
O39          C40   1.269       .  A
C40         C588   1.494   1_556  S
Cr41         O44   1.764       .  S
Cr42         O44   1.768       .  S
Cr43         O44   1.767       .  S
O45         Cr63   1.956       .  S
O45          C53   1.251       .  A
O46         Cr63   2.050       .  S
O46          C47   1.277       .  A
C47          O48   1.254       .  A
C47         C441   1.490       .  S
O48         Cr64   1.936       .  S
O49         Cr64   2.021       .  S
O49          C50   1.269       .  A
C50          O51   1.261       .  A
C50         C481   1.488       .  S
O51         Cr65   1.972       .  S
O52         Cr65   2.024       .  S
O52          C53   1.267       .  A
C53         C401   1.473       .  S
O54         Cr63   2.047       .  S
O54          C62   1.278       .  A
O55         Cr63   1.969       .  S
O55          C56   1.255       .  A
C56          O57   1.267       .  A
C56         C421   1.491       .  S
O57         Cr64   2.027       .  S
O58         Cr64   1.960       .  S
O58          C59   1.259       .  A
C59          O60   1.270       .  A
C59         C568   1.478       .  S
O60         Cr65   2.021       .  S
O61         Cr65   1.945       .  S
O61          C62   1.255       .  A
C62         C388   1.491       .  S
Cr63         O66   1.766       .  S
Cr64         O66   1.760       .  S
Cr65         O66   1.769       .  S
O67         Cr85   1.986       .  S
O67          C75   1.256       .  A
O68         Cr85   1.992       .  S
O68          C69   1.266       .  A
C69          O70   1.266       .  A
C69         C348   1.476       .  S
O70         Cr86   1.997       .  S
O71         Cr86   1.986       .  S
O71          C72   1.263       .  A
C72          O73   1.264       .  A
C72         C548   1.475       .  S
O73         Cr87   1.987       .  S
O74         Cr87   2.004       .  S
O74          C75   1.262       .  A
C75         C428   1.493       .  S
O76         Cr85   1.986       .  S
O76          C84   1.268       .  A
O77         Cr85   1.992       .  S
O77          C78   1.259       .  A
C78          O79   1.260       .  A
C78         C408   1.480   1_554  S
O79         Cr86   1.997       .  S
O80         Cr86   1.982       .  S
O80          C81   1.260       .  A
C81          O82   1.265       .  A
C81         C461   1.483       .  S
O82         Cr87   1.999       .  S
O83         Cr87   2.005       .  S
O83          C84   1.270       .  A
C84         C361   1.487       .  S
Cr85         O88   1.772       .  S
Cr86         O88   1.775       .  S
Cr87         O88   1.770       .  S
O89        Cr107   1.991       .  S
O89          C97   1.266       .  A
O90        Cr107   1.980       .  S
O90          C91   1.258       .  A
C91          O92   1.264       .  A
C91         C308   1.484       .  S
O92        Cr108   2.012       .  S
O93        Cr108   1.980       .  S
O93          C94   1.264       .  A
C94          O95   1.265       .  A
C94         C341   1.472       .  S
O95        Cr109   1.989       .  S
O96        Cr109   1.996       .  S
O96          C97   1.263       .  A
C97         C268   1.486       .  S
O98        Cr107   1.985       .  S
O98         C106   1.257       .  A
O99        Cr107   1.981       .  S
O99         C100   1.264       .  A
C100        O101   1.266       .  A
C100        C281   1.483       .  S
O101       Cr108   1.996       .  S
O102       Cr108   2.014       .  S
O102        C103   1.267       .  A
C103        O104   1.257       .  A
C103        C381   1.486       .  S
O104       Cr109   1.972       .  S
O105       Cr109   2.002       .  S
O105        C106   1.264       .  A
C106        C328   1.477       .  S
Cr107       O110   1.766       .  S
Cr108       O110   1.766       .  S
Cr109       O110   1.767       .  S
O111       Cr129   1.986       .  S
O111        C119   1.268       .  A
O112       Cr129   1.988       .  S
O112        C113   1.256       .  A
C113        O114   1.263       .  A
C113        C321   1.494       .  S
O114       Cr130   2.006       .  S
O115       Cr130   1.972       .  S
O115        C116   1.259       .  A
C116        O117   1.267       .  A
C116        C448   1.482       .  S
O117       Cr131   2.007       .  S
O118       Cr131   2.004       .  S
O118        C119   1.269       .  A
C119        C248   1.482       .  S
O120       Cr129   1.978       .  S
O120        C128   1.254       .  A
O121       Cr129   1.991       .  S
O121        C122   1.267       .  A
C122        O123   1.267       .  A
C122        C228   1.492       .  S
O123       Cr130   2.004       .  S
O124       Cr130   1.995       .  S
O124        C125   1.266       .  A
C125        O126   1.261       .  A
C125        C368   1.474       .  S
O126       Cr131   1.973       .  S
O127       Cr131   2.013       .  S
O127        C128   1.262       .  A
C128        C301   1.483   1_556  S
Cr129       O132   1.773       .  S
Cr130       O132   1.773       .  S
Cr131       O132   1.773       .  S
O133       Cr151   1.954       .  S
O133        C141   1.253       .  A
O134       Cr151   2.037       .  S
O134        C135   1.274       .  A
C135        O136   1.252       .  A
C135        C628   1.484       .  S
O136       Cr152   1.942       .  S
O137       Cr152   2.021       .  S
O137        C138   1.271       .  A
C138        O139   1.261       .  A
C138        C288   1.486       .  S
O139       Cr153   1.967       .  S
O140       Cr153   2.034       .  S
O140        C141   1.268       .  A
C141        C208   1.480       .  S
O142       Cr151   2.036       .  S
O142        C150   1.274       .  A
O143       Cr151   1.948       .  S
O143        C144   1.252       .  A
C144        O145   1.268       .  A
C144        C181   1.473       .  S
O145       Cr152   2.029       .  S
O146       Cr152   1.968       .  S
O146        C147   1.258       .  A
C147        O148   1.271       .  A
C147        C241   1.490       .  S
O148       Cr153   2.026       .  S
O149       Cr153   1.947       .  S
O149        C150   1.257       .  A
C150        C501   1.479       .  S
Cr151       O154   1.765       .  S
Cr152       O154   1.765       .  S
Cr153       O154   1.763       .  S
O155       Cr173   1.978       .  S
O155        C163   1.256       .  A
O156       Cr173   1.977       .  S
O156        C157   1.264       .  A
C157        O158   1.268       .  A
C157        C528   1.479       .  S
O158       Cr174   2.005       .  S
O159       Cr174   1.992       .  S
O159        C160   1.263       .  A
C160        O161   1.263       .  A
C160        C221   1.486       .  S
O161       Cr175   1.989       .  S
O162       Cr175   2.009       .  S
O162        C163   1.264       .  A
C163        C188   1.483   1_554  S
O164       Cr173   1.984       .  S
O164        C172   1.267       .  A
O165       Cr173   1.990       .  S
O165        C166   1.260       .  A
C166        O167   1.257       .  A
C166        C201   1.484       .  S
O167       Cr174   1.997       .  S
O168       Cr174   1.974       .  S
O168        C169   1.262       .  A
C169        O170   1.265       .  A
C169        C261   1.476       .  S
O170       Cr175   1.993       .  S
O171       Cr175   2.001       .  S
O171        C172   1.267       .  A
C172        C641   1.482       .  S
Cr173       O176   1.767       .  S
Cr174       O176   1.771       .  S
Cr175       O176   1.770       .  S
C177        C178   1.405       .  A
C177        C182   1.403       .  A
C177        F195   1.357       .  S
C178        C183   1.475       .  S
C178        C179   1.402       .  A
C179        C180   1.394       .  A
C179        F184   1.358       .  S
C180        C181   1.408       .  A
C180        F196   1.359       .  S
C181        C182   1.405       .  A
C182        F185   1.357       .  S
C183        C186   1.398       .  A
C183        C190   1.406       .  A
C186        C187   1.392       .  A
C186        F191   1.359       .  S
C187        C188   1.414       .  A
C187        F193   1.359   1_556  S
C188        C189   1.407       .  A
C189        C190   1.404       .  A
C189        F192   1.357       .  S
C190        F194   1.357       .  S
C197        C198   1.407       .  A
C197        C202   1.404       .  A
C197        F215   1.358       .  S
C198        C203   1.482       .  S
C198        C199   1.401       .  A
C199        C200   1.396       .  A
C199        F204   1.357       .  S
C200        C201   1.409       .  A
C200        F216   1.358       .  S
C201        C202   1.410       .  A
C202        F205   1.357       .  S
C203        C206   1.403       .  A
C203        C210   1.407       .  A
C206        C207   1.396       .  A
C206        F211   1.358       .  S
C207        C208   1.408       .  A
C207        F213   1.359       .  S
C208        C209   1.408       .  A
C209        C210   1.404       .  A
C209        F212   1.357       .  S
C210        F214   1.358       .  S
C217        C218   1.400   1_556  A
C217        C222   1.395   1_556  A
C217        F235   1.358       .  S
C218        C223   1.477   1_554  S
C218        C219   1.405       .  A
C219        C220   1.406       .  A
C219        F224   1.358       .  S
C220        C221   1.411       .  A
C220        F236   1.358       .  S
C221        C222   1.411       .  A
C222        F225   1.358   1_554  S
C223        C226   1.403       .  A
C223        C230   1.400       .  A
C226        C227   1.402       .  A
C226        F231   1.358   1_556  S
C227        C228   1.412       .  A
C227        F233   1.358       .  S
C228        C229   1.416       .  A
C229        C230   1.399       .  A
C229        F232   1.358       .  S
C230        F234   1.358       .  S
C237        C238   1.404       .  A
C237        C242   1.398   1_455  A
C237        F255   1.358       .  S
C238        C243   1.484       .  S
C238        C239   1.405       .  A
C239        C240   1.401   1_455  A
C239        F244   1.358       .  S
C240        C241   1.414       .  A
C240        F256   1.358       .  S
C241        C242   1.410       .  A
C242        F245   1.357       .  S
C243        C246   1.404       .  A
C243        C250   1.408       .  A
C246        C247   1.397       .  A
C246        F251   1.358       .  S
C247        C248   1.411       .  A
C247        F253   1.358       .  S
C248        C249   1.407       .  A
C249        C250   1.401       .  A
C249        F252   1.358       .  S
C250        F254   1.358       .  S
C257        C258   1.398       .  A
C257        C262   1.392       .  A
C257        F275   1.358       .  S
C258        C263   1.469       .  S
C258        C259   1.405       .  A
C259        C260   1.402       .  A
C259        F264   1.357       .  S
C260        C261   1.407       .  A
C260        F276   1.358       .  S
C261        C262   1.411       .  A
C262        F265   1.359       .  S
C263        C266   1.403       .  A
C263        C270   1.396       .  A
C266        C267   1.400       .  A
C266        F271   1.358       .  S
C267        C268   1.410       .  A
C267        F273   1.358       .  S
C268        C269   1.417       .  A
C269        C270   1.395       .  A
C269        F272   1.358       .  S
C270        F274   1.358       .  S
C277        C278   1.405       .  A
C277        C282   1.400       .  A
C277        F295   1.358       .  S
C278        C283   1.478       .  S
C278        C279   1.402       .  A
C279        C280   1.394       .  A
C279        F284   1.358       .  S
C280        C281   1.412       .  A
C280        F296   1.358       .  S
C281        C282   1.410       .  A
C282        F285   1.358       .  S
C283        C286   1.403       .  A
C283        C290   1.403       .  A
C286        C287   1.396   1_455  A
C286        F291   1.358       .  S
C287        C288   1.412       .  A
C287        F293   1.358       .  S
C288        C289   1.412       .  A
C289        C290   1.398   1_655  A
C289        F292   1.358       .  S
C290        F294   1.358       .  S
C297        C298   1.410       .  A
C297        C302   1.407       .  A
C297        F315   1.358       .  S
C298        C303   1.484       .  S
C298        C299   1.400       .  A
C299        C300   1.395       .  A
C299        F304   1.358       .  S
C300        C301   1.411       .  A
C300        F316   1.358   1_554  S
C301        C302   1.407       .  A
C302        F305   1.358       .  S
C303        C306   1.399       .  A
C303        C310   1.410       .  A
C306        C307   1.395       .  A
C306        F311   1.358       .  S
C307        C308   1.411       .  A
C307        F313   1.358       .  S
C308        C309   1.407       .  A
C309        C310   1.407       .  A
C309        F312   1.358       .  S
C310        F314   1.358       .  S
C317        C318   1.409       .  A
C317        C322   1.402       .  A
C317        F335   1.358       .  S
C318        C323   1.489       .  S
C318        C319   1.402       .  A
C319        C320   1.399       .  A
C319        F324   1.359       .  S
C320        C321   1.417       .  A
C320        F336   1.358       .  S
C321        C322   1.408       .  A
C322        F325   1.358       .  S
C323        C326   1.404       .  A
C323        C330   1.413       .  A
C326        C327   1.393       .  A
C326        F331   1.358       .  S
C327        C328   1.408       .  A
C327        F333   1.358       .  S
C328        C329   1.405       .  A
C329        C330   1.405       .  A
C329        F332   1.359       .  S
C330        F334   1.357       .  S
C337        C338   1.410       .  A
C337        C342   1.402   1_565  A
C337        F355   1.358       .  S
C338        C343   1.483       .  S
C338        C339   1.405   1_565  A
C339        C340   1.391       .  A
C339        F344   1.358   1_545  S
C340        C341   1.406       .  A
C340        F356   1.359       .  S
C341        C342   1.405       .  A
C342        F345   1.358       .  S
C343        C346   1.409       .  A
C343        C350   1.405       .  A
C346        C347   1.402       .  A
C346        F351   1.358       .  S
C347        C348   1.407       .  A
C347        F353   1.358       .  S
C348        C349   1.407       .  A
C349        C350   1.394       .  A
C349        F352   1.358       .  S
C350        F354   1.358       .  S
C357        C358   1.398       .  A
C357        C362   1.396       .  A
C357        F375   1.358       .  S
C358        C363   1.474       .  S
C358        C359   1.404       .  A
C359        C360   1.402       .  A
C359        F364   1.358   1_554  S
C360        C361   1.411       .  A
C360        F376   1.358       .  S
C361        C362   1.414       .  A
C362        F365   1.358       .  S
C363        C366   1.400       .  A
C363        C370   1.405   1_554  A
C366        C367   1.396   1_554  A
C366        F371   1.358       .  S
C367        C368   1.409       .  A
C367        F373   1.359   1_556  S
C368        C369   1.405       .  A
C369        C370   1.401       .  A
C369        F372   1.358       .  S
C370        F374   1.358       .  S
C377        C378   1.400   1_545  A
C377        C382   1.393       .  A
C377        F395   1.358       .  S
C378        C383   1.488       .  S
C378        C379   1.412   1_565  A
C379        C380   1.408       .  A
C379        F384   1.358   1_545  S
C380        C381   1.407       .  A
C380        F396   1.358       .  S
C381        C382   1.413       .  A
C382        F385   1.359       .  S
C383        C386   1.401       .  A
C383        C390   1.411       .  A
C386        C387   1.398       .  A
C386        F391   1.358       .  S
C387        C388   1.416       .  A
C387        F393   1.358       .  S
C388        C389   1.406       .  A
C389        C390   1.404       .  A
C389        F392   1.357       .  S
C390        F394   1.358       .  S
C397        C398   1.406       .  A
C397        C402   1.399       .  A
C397        F415   1.357       .  S
C398        C403   1.479       .  S
C398        C399   1.404       .  A
C399        C400   1.399       .  A
C399        F404   1.358       .  S
C400        C401   1.409       .  A
C400        F416   1.359       .  S
C401        C402   1.403       .  A
C402        F405   1.357       .  S
C403        C406   1.401       .  A
C403        C410   1.407       .  A
C406        C407   1.394       .  A
C406        F411   1.358       .  S
C407        C408   1.410       .  A
C407        F413   1.358   1_556  S
C408        C409   1.408       .  A
C409        C410   1.403       .  A
C409        F412   1.358       .  S
C410        F414   1.358       .  S
C417        C418   1.404       .  A
C417        C422   1.404       .  A
C417        F435   1.357       .  S
C418        C423   1.483       .  S
C418        C419   1.403       .  A
C419        C420   1.400       .  A
C419        F424   1.358       .  S
C420        C421   1.413       .  A
C420        F436   1.358       .  S
C421        C422   1.411       .  A
C422        F425   1.357       .  S
C423        C426   1.401       .  A
C423        C430   1.406       .  A
C426        C427   1.399       .  A
C426        F431   1.358       .  S
C427        C428   1.417       .  A
C427        F433   1.359       .  S
C428        C429   1.409       .  A
C429        C430   1.403       .  A
C429        F432   1.357       .  S
C430        F434   1.357       .  S
C437        C438   1.397       .  A
C437        C442   1.392       .  A
C437        F455   1.358       .  S
C438        C443   1.483       .  S
C438        C439   1.411       .  A
C439        C440   1.410       .  A
C439        F444   1.358       .  S
C440        C441   1.409       .  A
C440        F456   1.358       .  S
C441        C442   1.415       .  A
C442        F445   1.358       .  S
C443        C446   1.401       .  A
C443        C450   1.409       .  A
C446        C447   1.398       .  A
C446        F451   1.358       .  S
C447        C448   1.411       .  A
C447        F453   1.358       .  S
C448        C449   1.406       .  A
C449        C450   1.405       .  A
C449        F452   1.358       .  S
C450        F454   1.358       .  S
C457        C458   1.407   1_554  A
C457        C462   1.403       .  A
C457        F475   1.358       .  S
C458        C463   1.483       .  S
C458        C459   1.403       .  A
C459        C460   1.399       .  A
C459        F464   1.358       .  S
C460        C461   1.411   1_556  A
C460        F476   1.358       .  S
C461        C462   1.406       .  A
C462        F465   1.357       .  S
C463        C466   1.401       .  A
C463        C470   1.407       .  A
C466        C467   1.397       .  A
C466        F471   1.358       .  S
C467        C468   1.414       .  A
C467        F473   1.358       .  S
C468        C469   1.409       .  A
C469        C470   1.404       .  A
C469        F472   1.357       .  S
C470        F474   1.358       .  S
C477        C478   1.399       .  A
C477        C482   1.398   1_655  A
C477        F495   1.358       .  S
C478        C483   1.472       .  S
C478        C479   1.401       .  A
C479        C480   1.399   1_655  A
C479        F484   1.358       .  S
C480        C481   1.414       .  A
C480        F496   1.358       .  S
C481        C482   1.413       .  A
C482        F485   1.357       .  S
C483        C486   1.404       .  A
C483        C490   1.401       .  A
C486        C487   1.401       .  A
C486        F491   1.357       .  S
C487        C488   1.405       .  A
C487        F493   1.357       .  S
C488        C489   1.408       .  A
C489        C490   1.395       .  A
C489        F492   1.359       .  S
C490        F494   1.358       .  S
C497        C498   1.410       .  A
C497        C502   1.405       .  A
C497        F515   1.358       .  S
C498        C503   1.482       .  S
C498        C499   1.401       .  A
C499        C500   1.392       .  A
C499        F504   1.358       .  S
C500        C501   1.409       .  A
C500        F516   1.358       .  S
C501        C502   1.407       .  A
C502        F505   1.358       .  S
C503        C506   1.405       .  A
C503        C510   1.406       .  A
C506        C507   1.399       .  A
C506        F511   1.358       .  S
C507        C508   1.410       .  A
C507        F513   1.358       .  S
C508        C509   1.407       .  A
C509        C510   1.399       .  A
C509        F512   1.358       .  S
C510        F514   1.358       .  S
C517        C518   1.401   1_554  A
C517        C522   1.394   1_554  A
C517        F535   1.358       .  S
C518        C523   1.472   1_556  S
C518        C519   1.403       .  A
C519        C520   1.396       .  A
C519        F524   1.358       .  S
C520        C521   1.409       .  A
C520        F536   1.358       .  S
C521        C522   1.411       .  A
C522        F525   1.358   1_556  S
C523        C526   1.402       .  A
C523        C530   1.402       .  A
C526        C527   1.396       .  A
C526        F531   1.358       .  S
C527        C528   1.411       .  A
C527        F533   1.358       .  S
C528        C529   1.410       .  A
C529        C530   1.397       .  A
C529        F532   1.358       .  S
C530        F534   1.358   1_554  S
C537        C538   1.410       .  A
C537        C542   1.401       .  A
C537        F555   1.358       .  S
C538        C543   1.479       .  S
C538        C539   1.401       .  A
C539        C540   1.392       .  A
C539        F544   1.358       .  S
C540        C541   1.409       .  A
C540        F556   1.358       .  S
C541        C542   1.404       .  A
C542        F545   1.358       .  S
C543        C546   1.404       .  A
C543        C550   1.407       .  A
C546        C547   1.396       .  A
C546        F551   1.358       .  S
C547        C548   1.407       .  A
C547        F553   1.358       .  S
C548        C549   1.406       .  A
C549        C550   1.399       .  A
C549        F552   1.358       .  S
C550        F554   1.358       .  S
C557        C558   1.396       .  A
C557        C562   1.386       .  A
C557        F575   1.359       .  S
C558        C563   1.467       .  S
C558        C559   1.404       .  A
C559        C560   1.404       .  A
C559        F564   1.358       .  S
C560        C561   1.413       .  A
C560        F576   1.358       .  S
C561        C562   1.412       .  A
C562        F565   1.358       .  S
C563        C566   1.402       .  A
C563        C570   1.400       .  A
C566        C567   1.399   1_655  A
C566        F571   1.358       .  S
C567        C568   1.410       .  A
C567        F573   1.358       .  S
C568        C569   1.411       .  A
C569        C570   1.392   1_455  A
C569        F572   1.358       .  S
C570        F574   1.358       .  S
C577        C578   1.402       .  A
C577        C582   1.398       .  A
C577        F595   1.358       .  S
C578        C583   1.487       .  S
C578        C579   1.408       .  A
C579        C580   1.403       .  A
C579        F584   1.358       .  S
C580        C581   1.409       .  A
C580        F596   1.358       .  S
C581        C582   1.415       .  A
C582        F585   1.358       .  S
C583        C586   1.402       .  A
C583        C590   1.407       .  A
C586        C587   1.397       .  A
C586        F591   1.358       .  S
C587        C588   1.415       .  A
C587        F593   1.358       .  S
C588        C589   1.411       .  A
C589        C590   1.405       .  A
C589        F592   1.357       .  S
C590        F594   1.358       .  S
C597        C598   1.405       .  A
C597        C602   1.395       .  A
C597        F615   1.359       .  S
C598        C603   1.484       .  S
C598        C599   1.409       .  A
C599        C600   1.402       .  A
C599        F604   1.358       .  S
C600        C601   1.406       .  A
C600        F616   1.357       .  S
C601        C602   1.407       .  A
C602        F605   1.358       .  S
C603        C606   1.404       .  A
C603        C610   1.409       .  A
C606        C607   1.396       .  A
C606        F611   1.358       .  S
C607        C608   1.411       .  A
C607        F613   1.359       .  S
C608        C609   1.405       .  A
C609        C610   1.399       .  A
C609        F612   1.358       .  S
C610        F614   1.358       .  S
C617        C618   1.406       .  A
C617        C622   1.403   1_545  A
C617        F635   1.357       .  S
C618        C623   1.477       .  S
C618        C619   1.400       .  A
C619        C620   1.397   1_545  A
C619        F624   1.358       .  S
C620        C621   1.409       .  A
C620        F636   1.358       .  S
C621        C622   1.405       .  A
C622        F625   1.358       .  S
C623        C626   1.408       .  A
C623        C630   1.397       .  A
C626        C627   1.405       .  A
C626        F631   1.357       .  S
C627        C628   1.407       .  A
C627        F633   1.358       .  S
C628        C629   1.415       .  A
C629        C630   1.394       .  A
C629        F632   1.358       .  S
C630        F634   1.358       .  S
C637        C638   1.402       .  A
C637        C642   1.399       .  A
C637        F655   1.358       .  S
C638        C643   1.468       .  S
C638        C639   1.398       .  A
C639        C640   1.395       .  A
C639        F644   1.358       .  S
C640        C641   1.414       .  A
C640        F656   1.358       .  S
C641        C642   1.409       .  A
C642        F645   1.357       .  S
C643        C646   1.401       .  A
C643        C650   1.402       .  A
C646        C647   1.394   1_545  A
C646        F651   1.358       .  S
C647        C648   1.404       .  A
C647        F653   1.358       .  S
C648        C649   1.409       .  A
C649        C650   1.399   1_565  A
C649        F652   1.359       .  S
C650        F654   1.358       .  S
