geometry optimzed in LAMMPS
_audit_creation_date              2020-11-30 
_audit_creation_method            'lammps2cif' 
_symmetry_space_group_name_H-M    'P1' 
_symmetry_Int_Tables_number       1 
_symmetry_cell_setting            triclinic 
loop_ 
_symmetry_equiv_pos_as_xyz 
  x,y,z 
_cell_length_a                    41.55952172 
_cell_length_b                    40.78352144667596 
_cell_length_c                    26.145210702200515 
_cell_angle_alpha                 87.22243143886683 
_cell_angle_beta                  87.43074521140876 
_cell_angle_gamma                 119.72845891507046 
loop_ 
_atom_site_label 
_atom_site_type_symbol 
_atom_site_fract_x 
_atom_site_fract_y 
_atom_site_fract_z 
_atom_site_charge 
O1          O  0.81761277  0.32931593  0.08938706    -0.82300
O2          O  0.82138909  0.32843764  0.32513835    -0.67000
O3          O  0.84186766  0.35835758  0.18221265    -1.13600
C4          C  0.87625369  0.26384275  0.16886551     1.04600
O5          O  0.86194794  0.30763108  0.33307542    -0.80200
O6          O  0.91184017  0.32314980  0.25552668    -0.67800
Ni7        Ni  0.80474297  0.35399751  0.14010013     1.34900
C8          C  0.92525818  0.35489742  0.22945833     0.83300
O9          O  0.81679497  0.38265254  0.26269833    -0.80800
O10         O  0.79098527  0.37984198  0.18715642    -0.91000
C11         C  0.84251418  0.32120312  0.35172454     0.82900
O12         O  0.76564762  0.30547026  0.16834745    -0.69200
O13         O  0.86635330  0.25374276  0.21664820    -0.88500
C14         C  0.75482944  0.29314578  0.21498061     0.83700
C15         C  0.79995380  0.39300097  0.23082163     1.05300
H16         H  0.81540933  0.28089681  0.22802493     0.37100
O17         O  0.83892582  0.30279660  0.23347862    -1.11200
O18         O  0.90846179  0.36129923  0.19330866    -0.67800
Ni19       Ni  0.86080003  0.32635967  0.16625400     1.26300
O20         O  0.77564636  0.30762732  0.25117574    -0.68100
O21         O  0.87907562  0.29386173  0.14818008    -0.80400
C22         C  0.85022246  0.34154640  0.06875610     0.83100
O23         O  0.87696855  0.34947634  0.09713634    -0.67500
Ni24       Ni  0.86299227  0.28216439  0.27290638     1.27400
Ni25       Ni  0.82858879  0.34242033  0.25268825     1.26100
H26         H  0.86185608  0.38438227  0.17864410     0.37600
O27         O  0.81225736  0.33029205  0.59038616    -0.82300
O28         O  0.82150082  0.32563341  0.82718858    -0.67000
O29         O  0.83766341  0.35642006  0.68472392    -1.13600
C30         C  0.87777973  0.26635558  0.66642308     1.04600
O31         O  0.86545894  0.30933167  0.83128693    -0.80200
O32         O  0.91317283  0.32541959  0.75079776    -0.67800
Ni33       Ni  0.79782281  0.35000212  0.64668121     1.34900
C34         C  0.92482465  0.35708823  0.72539978     0.83300
O35         O  0.81456335  0.37915585  0.76820726    -0.80800
O36         O  0.78145298  0.37103514  0.69884982    -0.91000
C37         C  0.84499103  0.32106251  0.85175206     0.82900
O38         O  0.76331063  0.29923289  0.67347829    -0.69200
O39         O  0.86859102  0.25586586  0.71421492    -0.88500
C40         C  0.75275990  0.28780948  0.72037865     0.83700
C41         C  0.79419712  0.38686632  0.73994318     1.05300
H42         H  0.81517528  0.27925998  0.72922962     0.37100
O43         O  0.83839365  0.30182905  0.73375911    -1.11200
O44         O  0.90620215  0.36271557  0.69124902    -0.67800
Ni45       Ni  0.85812699  0.32609902  0.66622912     1.26300
O46         O  0.77369264  0.30393982  0.75593362    -0.68100
O47         O  0.87812928  0.29528718  0.64595842    -0.80400
C48         C  0.84470943  0.34150822  0.56959808     0.83100
O49         O  0.87186696  0.34951986  0.59726595    -0.67500
Ni50       Ni  0.86542750  0.28363136  0.77097831     1.27400
Ni51       Ni  0.82678466  0.33993608  0.75528208     1.26100
H52         H  0.85676046  0.38281989  0.68070290     0.37600
O53         O  0.53081566  0.19902772  0.07415990    -0.82300
O54         O  0.51385221  0.16812450  0.31303402    -0.67000
O55         O  0.52633470  0.16163576  0.17061169    -1.13600
C56         C  0.40005308  0.11764030  0.16013052     1.04600
O57         O  0.45197130  0.14196707  0.32759292    -0.80200
O58         O  0.44191575  0.08883405  0.26282841    -0.67800
Ni59       Ni  0.56261752  0.20530931  0.12924131     1.34900
C60         C  0.44743451  0.07548745  0.22268038     0.83300
O61         O  0.57104925  0.17559642  0.25059281    -0.80800
O62         O  0.59854283  0.21424855  0.17823769    -0.91000
C63         C  0.48468994  0.15695579  0.34264818     0.82900
O64         O  0.55027138  0.24083175  0.15763310    -0.69200
O65         O  0.39656265  0.10611883  0.20738970    -0.88500
C66         C  0.54868075  0.24646231  0.20484136     0.83700
C67         C  0.60003108  0.19900659  0.22123978     1.05300
H68         H  0.47484448  0.18584548  0.22334452     0.37100
O69         O  0.47344804  0.16145852  0.22500034    -1.11200
O70         O  0.45826785  0.09477772  0.17838078    -0.67800
Ni71       Ni  0.47791790  0.14934424  0.15670088     1.26300
O72         O  0.54198327  0.22102439  0.24009665    -0.68100
O73         O  0.43126339  0.14165137  0.13894925    -0.80400
C74         C  0.50565717  0.16847790  0.05791278     0.83100
O75         O  0.48548276  0.13974255  0.08868978    -0.67500
Ni76       Ni  0.42823508  0.12640683  0.26474004     1.27400
Ni77       Ni  0.52133809  0.16693944  0.24137595     1.26100
H78         H  0.53029548  0.14053103  0.16565176     0.37600
O79         O  0.53024156  0.20000356  0.57343395    -0.82300
O80         O  0.51137076  0.17490323  0.81280129    -0.67000
O81         O  0.52438108  0.16455632  0.67181002    -1.13600
C82         C  0.39810087  0.11990721  0.65915967     1.04600
O83         O  0.44930219  0.14521985  0.82760500    -0.80200
O84         O  0.43931558  0.09196606  0.76323354    -0.67800
Ni85       Ni  0.56166217  0.20688127  0.62904664     1.34900
C86         C  0.44513760  0.07846261  0.72347577     0.83300
O87         O  0.56845851  0.18025216  0.75272790    -0.80800
O88         O  0.59730533  0.21611560  0.67873831    -0.91000
C89         C  0.48204568  0.16195984  0.84263933     0.82900
O90         O  0.55102234  0.24449206  0.65388665    -0.69200
O91         O  0.39445829  0.10944651  0.70687977    -0.88500
C92         C  0.54818771  0.25090173  0.70047031     0.83700
C93         C  0.59787055  0.20171233  0.72296165     1.05300
H94         H  0.47200988  0.18926866  0.72154996     0.37100
O95         O  0.47099238  0.16506165  0.72418908    -1.11200
O96         O  0.45645088  0.09763593  0.67920924    -0.67800
Ni97       Ni  0.47607204  0.15191659  0.65654561     1.26300
O98         O  0.53952618  0.22573015  0.73700693    -0.68100
O99         O  0.42937683  0.14339469  0.63747402    -0.80400
C100        C  0.50530282  0.16899719  0.55801584     0.83100
O101        O  0.48427767  0.14116230  0.58959758    -0.67500
Ni102      Ni  0.42588350  0.12982459  0.76435305     1.27400
Ni103      Ni  0.51899514  0.17160155  0.74177335     1.26100
H104        H  0.52807662  0.14310044  0.66873617     0.37600
O105        O  0.68361284  0.47543370  0.06253099    -0.82300
O106        O  0.66424814  0.48816082  0.29851541    -0.67000
O107        O  0.64967075  0.47690889  0.15699859    -1.13600
C108        C  0.72293069  0.60669585  0.12399177     1.04600
O109        O  0.70112662  0.55108290  0.29939199    -0.80200
O110        O  0.65345726  0.55456933  0.23538364    -0.67800
Ni111      Ni  0.66032037  0.44235562  0.12439801     1.34900
C112        C  0.63597454  0.55061266  0.19551090     0.83300
O113        O  0.61705691  0.42982138  0.24365921    -0.80800
O114        O  0.63551119  0.40502436  0.18119922    -0.91000
C115        C  0.68321193  0.51781323  0.32175885     0.82900
O116        O  0.70809452  0.45951521  0.15114169    -0.69200
O117        O  0.71220699  0.60703966  0.17026773    -0.88500
C118        C  0.71285750  0.45872412  0.19878402     0.83700
C119        C  0.61417751  0.40151927  0.22022982     1.05300
H120        H  0.72266383  0.53160787  0.20183346     0.37100
O121        O  0.69937065  0.53143919  0.20228588    -1.11200
O122        O  0.64668569  0.54328520  0.15235369    -0.67800
Ni123      Ni  0.68399427  0.52742276  0.13448809     1.26300
O124        O  0.69173678  0.46214469  0.23190387    -0.68100
O125        O  0.72124030  0.57722530  0.10859944    -0.80400
C126        C  0.67583281  0.49924066  0.04156598     0.83100
O127        O  0.66775587  0.51965789  0.06805318    -0.67500
Ni128      Ni  0.70539124  0.57529288  0.23307507     1.27400
Ni129      Ni  0.65775616  0.48138399  0.22718188     1.26100
H130        H  0.62462171  0.47115543  0.15155360     0.37600
O131        O  0.69302871  0.48172361  0.56294787    -0.82300
O132        O  0.66595998  0.49162460  0.79779088    -0.67000
O133        O  0.65664626  0.48257254  0.65533616    -1.13600
C134        C  0.73110126  0.61176537  0.62742666     1.04600
O135        O  0.70495687  0.55397863  0.80171258    -0.80200
O136        O  0.65919740  0.55893901  0.73576856    -0.67800
Ni137      Ni  0.66747300  0.44791474  0.62362181     1.34900
C138        C  0.64245333  0.55499563  0.69515578     0.83300
O139        O  0.62023394  0.43476557  0.73988473    -0.80800
O140        O  0.64026547  0.41010173  0.67905841    -0.91000
C141        C  0.68502233  0.52040932  0.82246837     0.82900
O142        O  0.71377247  0.46337713  0.65413848    -0.69200
O143        O  0.71916099  0.61155171  0.67319878    -0.88500
C144        C  0.71625871  0.46128576  0.70237470     0.83700
C145        C  0.61759377  0.40661925  0.71627908     1.05300
H146        H  0.72804179  0.53498928  0.70536119     0.37100
O147        O  0.70514550  0.53557005  0.70418982    -1.11200
O148        O  0.65455905  0.54890916  0.65200966    -0.67800
Ni149      Ni  0.69214879  0.53303784  0.63527484     1.26300
O150        O  0.69455729  0.46521506  0.73377729    -0.68100
O151        O  0.73050354  0.58278363  0.61228104    -0.80400
C152        C  0.68513205  0.50524604  0.54130691     0.83100
O153        O  0.67821623  0.52679116  0.56725231    -0.67500
Ni154      Ni  0.71096007  0.57916501  0.73563377     1.27400
Ni155      Ni  0.66208577  0.48592337  0.72613300     1.26100
H156        H  0.63206802  0.47749134  0.64803860     0.37600
O157        O  0.32346434  0.79333223  0.41008045    -0.82300
O158        O  0.32686103  0.81659510  0.17247693    -0.67000
O159        O  0.35217168  0.82690806  0.30956353    -1.13600
C160        C  0.26764727  0.87160525  0.33904819     1.04600
O161        O  0.30038475  0.85257892  0.16366575    -0.80200
O162        O  0.33331847  0.90475910  0.23121306    -0.67800
Ni163      Ni  0.34683152  0.78446762  0.35039846     1.34900
C164        C  0.35805656  0.91580118  0.26323618     0.83300
O165        O  0.37823285  0.80971876  0.22311492    -0.80800
O166        O  0.37222691  0.77407852  0.29585043    -0.91000
C167        C  0.31429341  0.83357053  0.14528177     0.82900
O168        O  0.29891291  0.74700025  0.32997976    -0.69200
O169        O  0.26649746  0.87513176  0.29055590    -0.88500
C170        C  0.28988934  0.74053324  0.28411805     0.83700
C171        C  0.38588877  0.78755761  0.24985861     1.05300
H172        H  0.27625064  0.80469215  0.27347671     0.37100
O173        O  0.29885677  0.82883287  0.26699995    -1.11200
O174        O  0.35529649  0.89568559  0.30457793    -0.67800
Ni175      Ni  0.31942702  0.84329346  0.33193976     1.26300
O176        O  0.30528366  0.76606741  0.24738787    -0.68100
O177        O  0.28557554  0.85753884  0.35878844    -0.80400
C178        C  0.33144482  0.82521059  0.42689880     0.83100
O179        O  0.34014872  0.85376623  0.39602896    -0.67500
Ni180      Ni  0.28545800  0.86179032  0.23001558     1.27400
Ni181      Ni  0.33871825  0.82007129  0.24156396     1.26100
H182        H  0.37755002  0.84731610  0.30951409     0.37600
O183        O  0.32407799  0.79525954  0.90996936    -0.82300
O184        O  0.32458803  0.81413348  0.67358158    -0.67000
O185        O  0.35287208  0.82770632  0.80923684    -1.13600
C186        C  0.26712137  0.87165634  0.83794766     1.04600
O187        O  0.30443773  0.85555657  0.66332795    -0.80200
O188        O  0.33212279  0.90695712  0.73321634    -0.67800
Ni189      Ni  0.34783976  0.78598511  0.85158561     1.34900
C190        C  0.35783818  0.91801452  0.76373012     0.83300
O191        O  0.37635637  0.80663186  0.72299239    -0.80800
O192        O  0.37310991  0.77482027  0.79811117    -0.91000
C193        C  0.31552480  0.83394459  0.64555060     0.82900
O194        O  0.30002586  0.74751029  0.83270057    -0.69200
O195        O  0.26380482  0.87253232  0.78963379    -0.88500
C196        C  0.28910965  0.74075042  0.78776412     0.83700
C197        C  0.38514087  0.78592451  0.75111439     1.05300
H198        H  0.27699719  0.80632557  0.77467747     0.37100
O199        O  0.29982704  0.83012649  0.76710336    -1.11200
O200        O  0.35689042  0.89734772  0.80333120    -0.67800
Ni201      Ni  0.32085537  0.84527921  0.83148651     1.26300
O202        O  0.30340127  0.76576450  0.75037867    -0.68100
O203        O  0.28782172  0.86090258  0.85751314    -0.80400
C204        C  0.33207226  0.82708995  0.92671013     0.83100
O205        O  0.34159357  0.85587095  0.89576766    -0.67500
Ni206      Ni  0.28593124  0.86217865  0.72923499     1.27400
Ni207      Ni  0.33818394  0.81925376  0.74177019     1.26100
H208        H  0.37838131  0.84800732  0.80798756     0.37600
O209        O  0.18925381  0.49927072  0.41648314    -0.82300
O210        O  0.17086718  0.49601893  0.18371125    -0.67000
O211        O  0.16187022  0.50643694  0.32560124    -1.13600
C212        C  0.11165915  0.37241141  0.35350571     1.04600
O213        O  0.13167636  0.43358278  0.18210006    -0.80200
O214        O  0.08184162  0.40564344  0.26210577    -0.67800
Ni215      Ni  0.20451557  0.53690266  0.35975611     1.34900
C216        C  0.07193973  0.42485190  0.28878542     0.83300
O217        O  0.18317766  0.55600576  0.24140966    -0.80800
O218        O  0.22066647  0.57722423  0.30680077    -0.91000
C219        C  0.15102327  0.46682067  0.16008144     0.82900
O220        O  0.23650329  0.52022294  0.32934789    -0.69200
O221        O  0.11942149  0.37213593  0.30592143    -0.88500
C222        C  0.24401709  0.52179547  0.28132125     0.83700
C223        C  0.20630097  0.58290920  0.26752742     1.05300
H224        H  0.17940615  0.45119845  0.28333672     0.37100
O225        O  0.15631664  0.45100711  0.27952610    -1.11200
O226        O  0.09139185  0.44602595  0.32341065    -0.67800
Ni227      Ni  0.13904219  0.45446305  0.34723897     1.26300
O228        O  0.22078669  0.51848863  0.24940134    -0.68100
O229        O  0.11597134  0.40214893  0.37251071    -0.80400
C230        C  0.15673316  0.48219769  0.43948554     0.83100
O231        O  0.12824827  0.46419921  0.41435542    -0.67500
Ni232      Ni  0.12704192  0.40618231  0.24623236     1.27400
Ni233      Ni  0.16867298  0.50257869  0.25539548     1.26100
H234        H  0.14427058  0.51516193  0.33096480     0.37600
O235        O  0.18672929  0.49352758  0.91621862    -0.82300
O236        O  0.17056639  0.49952319  0.68460593    -0.67000
O237        O  0.16006540  0.50483421  0.82736772    -1.13600
C238        C  0.10904317  0.37053251  0.84851071     1.04600
O239        O  0.13527320  0.43683199  0.67918620    -0.80200
O240        O  0.08261372  0.40790124  0.75557493    -0.67800
Ni241      Ni  0.20203400  0.53385458  0.86324512     1.34900
C242        C  0.07160446  0.42529700  0.78426400     0.83300
O243        O  0.18180719  0.55687991  0.74624451    -0.80800
O244        O  0.21750276  0.57623278  0.81386379    -0.91000
C245        C  0.15288149  0.47079377  0.65925868     0.82900
O246        O  0.23549515  0.51991282  0.83017043    -0.69200
O247        O  0.11664408  0.37094668  0.80070703    -0.88500
C248        C  0.24306956  0.52245065  0.78199628     0.83700
C249        C  0.20391710  0.58291051  0.77433568     1.05300
H250        H  0.17897079  0.45170244  0.78187272     0.37100
O251        O  0.15576705  0.45126591  0.77804262    -1.11200
O252        O  0.08978672  0.44429896  0.82146542    -0.67800
Ni253      Ni  0.13735910  0.45254012  0.84606658     1.26300
O254        O  0.21992347  0.51987585  0.75041811    -0.68100
O255        O  0.11453658  0.40012467  0.86882110    -0.80400
C256        C  0.15429190  0.47656678  0.93953689     0.83100
O257        O  0.12571201  0.45998464  0.91413497    -0.67500
Ni258      Ni  0.12749752  0.40735358  0.74235382     1.27400
Ni259      Ni  0.16770406  0.50338954  0.75683664     1.26100
H260        H  0.14228433  0.51325250  0.83358831     0.37600
O261        O  0.47557778  0.66449160  0.37089991    -0.82300
O262        O  0.48215304  0.65649884  0.13549735    -0.67000
O263        O  0.47271820  0.63224364  0.27903870    -1.13600
C264        C  0.59899661  0.72840924  0.27903209     1.04600
O265        O  0.54337026  0.67837821  0.12144441    -0.80200
O266        O  0.57683216  0.66355456  0.19572065    -0.67800
Ni267      Ni  0.43963567  0.63953939  0.32232150     1.34900
C268        C  0.56082836  0.63418286  0.22715419     0.83300
O269        O  0.42484484  0.60386895  0.20420344    -0.80800
O270        O  0.40099456  0.61335878  0.27807422    -0.91000
C271        C  0.51088605  0.66479967  0.10598975     0.82900
O272        O  0.45124429  0.68817674  0.29184133    -0.69200
O273        O  0.60030929  0.73497732  0.23059649    -0.88500
C274        C  0.45085374  0.69698243  0.24484670     0.83700
C275        C  0.39752889  0.59610269  0.23742061     1.05300
H276        H  0.52220145  0.70853583  0.22601490     0.37100
O277        O  0.52440995  0.68632346  0.22178281    -1.11200
O278        O  0.53782450  0.63022605  0.26491505    -0.67800
Ni279      Ni  0.52259972  0.66566843  0.28976613     1.26300
O280        O  0.45584773  0.67940043  0.20946772    -0.68100
O281        O  0.57180226  0.70026652  0.30373536    -0.80400
C282        C  0.49624267  0.65270125  0.38884852     0.83100
O283        O  0.51578528  0.64476125  0.35867435    -0.67500
Ni284      Ni  0.56906286  0.70486606  0.17852168     1.27400
Ni285      Ni  0.47560223  0.64521233  0.20824038     1.26100
H286        H  0.46729833  0.60633508  0.28459389     0.37600
O287        O  0.47571404  0.66143097  0.87155796    -0.82300
O288        O  0.47991428  0.65432773  0.63616406    -0.67000
O289        O  0.47254028  0.62923115  0.77945365    -1.13600
C290        C  0.59871815  0.72738752  0.77422391     1.04600
O291        O  0.53993964  0.67140375  0.62214294    -0.80200
O292        O  0.57695375  0.66197579  0.69553194    -0.67800
Ni293      Ni  0.43911639  0.63478671  0.82447952     1.34900
C294        C  0.56137234  0.63251887  0.72671068     0.83300
O295        O  0.42332458  0.60114745  0.70479892    -0.80800
O296        O  0.40003871  0.60692513  0.78179801    -0.91000
C297        C  0.50793344  0.66072394  0.60647596     0.82900
O298        O  0.44738610  0.68246439  0.79463027    -0.69200
O299        O  0.59853331  0.73351791  0.72597032    -0.88500
C300        C  0.44801439  0.69254328  0.74777985     0.83700
C301        C  0.39625966  0.59198385  0.73908695     1.05300
H302        H  0.52101937  0.70554921  0.72535039     0.37100
O303        O  0.52310686  0.68326476  0.72113294    -1.11200
O304        O  0.53796665  0.62799006  0.76420478    -0.67800
Ni305      Ni  0.52270230  0.66350233  0.78891293     1.26300
O306        O  0.45448198  0.67648303  0.71162317    -0.68100
O307        O  0.57241927  0.69913400  0.80040000    -0.80400
C308        C  0.49757146  0.65102339  0.88897339     0.83100
O309        O  0.51739922  0.64369341  0.85834402    -0.67500
Ni310      Ni  0.56674222  0.70117158  0.67625327     1.27400
Ni311      Ni  0.47416022  0.64231740  0.70869156     1.26100
H312        H  0.46780741  0.60352450  0.78431567     0.37600
O313        O  0.15939053  0.00470823  0.11242584    -0.82300
O314        O  0.15994952  0.98863233  0.88116725    -0.67000
O315        O  0.14806043  0.96817582  0.02470605    -1.13600
C316        C  0.27774829  0.04837448  0.02678198     1.04600
O317        O  0.22108837  0.00905551  0.86666952    -0.80200
O318        O  0.25049037  0.98911619  0.94369350    -0.67800
Ni319      Ni  0.12025041  0.98230331  0.06650660     1.34900
C320        C  0.22593687  0.95701742  0.96493809     0.83300
O321        O  0.10015980  0.94220592  0.95196378    -0.80800
O322        O  0.07950379  0.95730645  0.02421638    -0.91000
C323        C  0.18831621  0.99580402  0.85158989     0.82900
O324        O  0.13535831  0.03125149  0.03141495    -0.69200
O325        O  0.27891715  0.06053145  0.98033680    -0.88500
C326        C  0.13386004  0.03743950  0.98362805     0.83700
C327        C  0.07379078  0.93795680  0.98491809     1.05300
H328        H  0.20295118  0.04062804  0.97296505     0.37100
O329        O  0.20296351  0.01738998  0.96748808    -1.11200
O330        O  0.20312408  0.95320944  0.00299896    -0.67800
Ni331      Ni  0.19874870  0.99392052  0.03433540     1.26300
O332        O  0.13767136  0.01743947  0.95103910    -0.68100
O333        O  0.24973550  0.01862288  0.04686480    -0.80400
C334        C  0.17473687  0.98715319  0.13252333     0.83100
O335        O  0.18894944  0.97237405  0.10363263    -0.67500
Ni336      Ni  0.24753158  0.03329268  0.92567801     1.27400
Ni337      Ni  0.15255051  0.97966639  0.95410709     1.26100
H338        H  0.13833923  0.94126705  0.03162489     0.37600
O339        O  0.15244267  0.99513570  0.61639616    -0.82300
O340        O  0.15894894  0.98825508  0.38104542    -0.67000
O341        O  0.14595928  0.96313292  0.52439273    -1.13600
C342        C  0.27480779  0.04823974  0.52850812     1.04600
O343        O  0.21998896  0.00837006  0.36758967    -0.80200
O344        O  0.24998277  0.98929213  0.44437734    -0.67800
Ni345      Ni  0.11573084  0.97409706  0.56689802     1.34900
C346        C  0.22631768  0.95690828  0.46580135     0.83300
O347        O  0.09961269  0.93798326  0.44923492    -0.80800
O348        O  0.07690429  0.95067185  0.52163358    -0.91000
C349        C  0.18765862  0.99626529  0.35169195     0.82900
O350        O  0.13094684  0.02396297  0.53523808    -0.69200
O351        O  0.27592492  0.05994808  0.48190652    -0.88500
C352        C  0.12969729  0.03136589  0.48777230     0.83700
C353        C  0.07253045  0.93245376  0.48154603     1.05300
H354        H  0.19956899  0.03791185  0.47486440     0.37100
O355        O  0.20044063  0.01516752  0.46896741    -1.11200
O356        O  0.20332621  0.95221228  0.50392673    -0.67800
Ni357      Ni  0.19630997  0.99110206  0.53549632     1.26300
O358        O  0.13414583  0.01265084  0.45376225    -0.68100
O359        O  0.24703779  0.01843555  0.54916308    -0.80400
C360        C  0.17037957  0.97976263  0.63445645     0.83100
O361        O  0.18683800  0.96812997  0.60405032    -0.67500
Ni362      Ni  0.24537421  0.03256697  0.42710458     1.27400
Ni363      Ni  0.15103041  0.97657780  0.45382188     1.26100
H364        H  0.13749734  0.93637818  0.52993717     0.37600
O365        O  0.97892825  0.10718929  0.10917568    -0.82300
O366        O  0.99169841  0.13368193  0.87140158    -0.67000
O367        O  0.01083741  0.14332683  0.01158914    -1.13600
C368        C  0.92704613  0.18690527  0.03252242     1.04600
O369        O  0.95063845  0.15410997  0.86440251    -0.80200
O370        O  0.99463149  0.21070777  0.92042972    -0.67800
Ni371      Ni  0.00720893  0.10197328  0.05300386     1.34900
C372        C  0.01584573  0.22502756  0.95620145     0.83300
O373        O  0.04438201  0.13117062  0.92854028    -0.80800
O374        O  0.03722979  0.09538216  0.00174268    -0.91000
C375        C  0.97077989  0.14153025  0.84558711     0.82900
O376        O  0.96223323  0.06234717  0.02921895    -0.69200
O377        O  0.93452805  0.19678906  0.98465412    -0.88500
C378        C  0.95453258  0.05633843  0.98291256     0.83700
C379        C  0.05407694  0.11182058  0.95811741     1.05300
H380        H  0.93511310  0.11545008  0.96914669     0.37100
O381        O  0.95695893  0.14033307  0.96466060    -1.11200
O382        O  0.00838297  0.20902167  0.00264993    -0.67800
Ni383      Ni  0.97412629  0.15526410  0.03034633     1.26300
O384        O  0.97037941  0.08237274  0.94681888    -0.68100
O385        O  0.93513276  0.16374019  0.05297514    -0.80400
C386        C  0.98525932  0.13830346  0.12653300     0.83100
O387        O  0.99170693  0.16653113  0.09627279    -0.67500
Ni388      Ni  0.94421977  0.17315854  0.92706877     1.27400
Ni389      Ni  0.00073742  0.13662844  0.94241575     1.26100
H390        H  0.03521272  0.16508708  0.01358295     0.37600
O391        O  0.97244657  0.10424966  0.60835772    -0.82300
O392        O  0.99673003  0.13791182  0.37180173    -0.67000
O393        O  0.00990353  0.14230670  0.51395075    -1.13600
C394        C  0.92969985  0.19010301  0.53066697     1.04600
O395        O  0.95627577  0.15898863  0.36286737    -0.80200
O396        O  0.99914683  0.21368844  0.42207508    -0.67800
Ni397      Ni  0.00270677  0.09928838  0.55481970     1.34900
C398        C  0.01927598  0.22681140  0.45923033     0.83300
O399        O  0.04522085  0.13052775  0.43306952    -0.80800
O400        O  0.03422812  0.09285375  0.50601778    -0.91000
C401        C  0.97694023  0.14673847  0.34485277     0.82900
O402        O  0.95874931  0.06189980  0.52642319    -0.69200
O403        O  0.93826737  0.20053130  0.48305910    -0.88500
C404        C  0.95338839  0.05688042  0.47933007     0.83700
C405        C  0.05261182  0.10951038  0.46325166     1.05300
H406        H  0.93674330  0.11812856  0.46629203     0.37100
O407        O  0.95899278  0.14271488  0.46339520    -1.11200
O408        O  0.01028030  0.20969827  0.50517940    -0.67800
Ni409      Ni  0.97401410  0.15569440  0.53045948     1.26300
O410        O  0.97098166  0.08360308  0.44442986    -0.68100
O411        O  0.93552783  0.16526183  0.55091924    -0.80400
C412        C  0.97999581  0.13524704  0.62714460     0.83100
O413        O  0.98917590  0.16477439  0.59787967    -0.67500
Ni414      Ni  0.94854483  0.17722589  0.42554884     1.27400
Ni415      Ni  0.00249120  0.13782088  0.44380568     1.26100
H416        H  0.03441876  0.16322940  0.51804986     0.37600
O417        O  0.84344192  0.84025685  0.81217283    -0.82300
O418        O  0.83131416  0.82867105  0.04878879    -0.67000
O419        O  0.84416781  0.81218636  0.91010063    -1.13600
C420        C  0.72154242  0.78879231  0.89843209     1.04600
O421        O  0.77005820  0.78726256  0.06070137    -0.80200
O422        O  0.73279484  0.74490942  0.98248175    -0.67800
Ni423      Ni  0.87931336  0.85038986  0.86231355     1.34900
C424        C  0.75422237  0.73173169  0.97375015     0.83300
O425        O  0.89018288  0.83270056  0.98847812    -0.80800
O426        O  0.91667328  0.85995890  0.90854750    -0.91000
C427        C  0.80203986  0.80672833  0.07796690     0.82900
O428        O  0.87540627  0.89302363  0.88453595    -0.69200
O429        O  0.72280807  0.80120730  0.94276014    -0.88500
C430        C  0.87332765  0.90147184  0.93043407     0.83700
C431        C  0.91865300  0.85031921  0.95509609     1.05300
H432        H  0.79753231  0.84236972  0.94802135     0.37100
O433        O  0.79340616  0.81747851  0.95860214    -1.11200
O434        O  0.78016742  0.74706952  0.93688904    -0.67800
Ni435      Ni  0.79457479  0.79547415  0.89675867     1.26300
O436        O  0.86164969  0.87688502  0.96830092    -0.68100
O437        O  0.74461544  0.77923312  0.88187178    -0.80400
C438        C  0.82137268  0.80737051  0.79790108     0.83100
O439        O  0.80144550  0.77967462  0.83140512    -0.67500
Ni440      Ni  0.74808574  0.79493606  0.00013921     1.27400
Ni441      Ni  0.84011138  0.82325180  0.97814665     1.26100
H442        H  0.84857723  0.79103103  0.91029444     0.37600
O443        O  0.84011721  0.83934034  0.31083692    -0.82300
O444        O  0.83504278  0.82991422  0.54805260    -0.67000
O445        O  0.84329113  0.81230097  0.40822284    -1.13600
C446        C  0.72072761  0.78961019  0.40461783     1.04600
O447        O  0.77398968  0.78877549  0.56260497    -0.80200
O448        O  0.73452150  0.74596438  0.48632293    -0.67800
Ni449      Ni  0.87715438  0.85026666  0.35933814     1.34900
C450        C  0.75607882  0.73314941  0.47623165     0.83300
O451        O  0.89087325  0.83190405  0.48390900    -0.80800
O452        O  0.91559208  0.86078965  0.40411993    -0.91000
C453        C  0.80640361  0.80823750  0.57844509     0.82900
O454        O  0.87252560  0.89225565  0.38181432    -0.69200
O455        O  0.72312102  0.80198096  0.44912388    -0.88500
C456        C  0.87303032  0.90164603  0.42762290     0.83700
C457        C  0.91852234  0.84997935  0.44960965     1.05300
H458        H  0.79834508  0.84345691  0.44991294     0.37100
O459        O  0.79430824  0.81854084  0.46007831    -1.11200
O460        O  0.78050940  0.74794708  0.43765679    -0.67800
Ni461      Ni  0.79343191  0.79584924  0.39784361     1.26300
O462        O  0.86368132  0.87777698  0.46612500    -0.68100
O463        O  0.74304091  0.77962871  0.38638489    -0.80400
C464        C  0.81736294  0.80635911  0.29758456     0.83100
O465        O  0.79796834  0.77913718  0.33192836    -0.67500
Ni466      Ni  0.75016584  0.79603696  0.50419488     1.27400
Ni467      Ni  0.84130445  0.82382401  0.47666662     1.26100
H468        H  0.84763025  0.79112092  0.40754334     0.37600
C469        C  0.78397417  0.77903850  0.72240127    -0.14800
C470        C  0.81793808  0.80357690  0.74195783     0.07400
C471        C  0.84854750  0.82776353  0.70724103    -0.14800
C472        C  0.84507906  0.82841026  0.65429571    -0.14800
C473        C  0.81070260  0.80525549  0.63456299     0.07400
C474        C  0.78032165  0.78002212  0.66925787    -0.14800
H475        H  0.75990351  0.76028646  0.74824650     0.11400
H476        H  0.87518348  0.84684869  0.72120781     0.11400
H477        H  0.86916380  0.84787802  0.62894351     0.11400
H478        H  0.75346748  0.76151583  0.65546621     0.11400
C479        C  0.83978410  0.82739637  0.15409405    -0.14800
C480        C  0.80560408  0.80372531  0.13430902     0.07400
C481        C  0.77538238  0.77809393  0.16898831    -0.14800
C482        C  0.77916972  0.77720782  0.22227471    -0.14800
C483        C  0.81313182  0.80215966  0.24172461     0.07400
C484        C  0.84340580  0.82672708  0.20684267    -0.14800
H485        H  0.86376842  0.84725941  0.12887651     0.11400
H486        H  0.74868777  0.75919709  0.15506382     0.02400
H487        H  0.75528682  0.75818947  0.24824612     0.11400
H488        H  0.87002787  0.84616778  0.22052653     0.11400
C489        C  0.92728902  0.00937956  0.41265107    -0.14800
C490        C  0.92745604  0.01815890  0.46422472     0.07400
C491        C  0.90539982  0.98865420  0.50191760    -0.14800
C492        C  0.88558588  0.95117192  0.48906969    -0.14800
C493        C  0.88739341  0.94196521  0.43814589     0.07400
C494        C  0.90751882  0.97167527  0.39976753    -0.14800
H495        H  0.94399527  0.03140756  0.38253174     0.11400
H496        H  0.90461351  0.99429985  0.54186620     0.11400
H497        H  0.87023166  0.92913939  0.51973541     0.11400
H498        H  0.90968279  0.96566000  0.36027195     0.11400
C499        C  0.96470375  0.16235843  0.75765546    -0.14800
C500        C  0.97085530  0.13779900  0.79003551     0.07400
C501        C  0.97904654  0.11170300  0.76854802    -0.14800
C502        C  0.98117640  0.11035332  0.71534564    -0.14800
C503        C  0.97624926  0.13582709  0.68303884     0.07400
C504        C  0.96794214  0.16176887  0.70455528    -0.14800
H505        H  0.95866854  0.18299973  0.77334510     0.11400
H506        H  0.98386254  0.09251409  0.79281275     0.11400
H507        H  0.98765861  0.09009577  0.69937919     0.11400
H508        H  0.96410705  0.18166259  0.68037531     0.11400
C509        C  0.98998674  0.11664488  0.21499351    -0.14800
C510        C  0.98295029  0.14036510  0.18229403     0.07400
C511        C  0.97342248  0.16562614  0.20331449    -0.14800
C512        C  0.97084833  0.16707502  0.25635297    -0.14800
C513        C  0.97842519  0.14377112  0.28913034     0.07400
C514        C  0.98819710  0.11866631  0.26804937    -0.14800
H515        H  0.99743212  0.09694461  0.19945007     0.11400
H516        H  0.96765880  0.18398081  0.17880652     0.11400
H517        H  0.96355550  0.18694646  0.27168022     0.11400
H518        H  0.99412745  0.10044059  0.29255776     0.11400
C519        C  0.90827576  0.98758804  0.00739331    -0.14800
C520        C  0.92792460  0.01742902  0.96923397     0.07400
C521        C  0.92467748  0.00909617  0.91730300    -0.14800
C522        C  0.90483796  0.97157126  0.90404655    -0.14800
C523        C  0.88741353  0.94150446  0.94239324     0.07400
C524        C  0.88810048  0.95018806  0.99414857    -0.14800
H525        H  0.90976128  0.99291541  0.04764334     0.11400
H526        H  0.93919047  0.03143286  0.88675929     0.11400
H527        H  0.90479995  0.96604574  0.86395430     0.11400
H528        H  0.87475991  0.92786861  0.02495496     0.11400
C529        C  0.02188079  0.89219088  0.42618331    -0.14800
C530        C  0.03347301  0.90437320  0.47440222     0.07400
C531        C  0.00659554  0.89156774  0.51684282    -0.14800
C532        C  0.96866841  0.87045817  0.51019227    -0.14800
C533        C  0.95701986  0.86166697  0.46098523     0.07400
C534        C  0.98397194  0.87087306  0.41960244    -0.14800
H535        H  0.04182543  0.90100028  0.39314228     0.11400
H536        H  0.01478638  0.89954723  0.55507531     0.11400
H537        H  0.94865898  0.86360693  0.54266497     0.11400
H538        H  0.97567776  0.86373361  0.38116467     0.11400
C539        C  0.09703079  0.05337461  0.42920570    -0.14800
C540        C  0.11925833  0.05990355  0.47099589     0.07400
C541        C  0.12685996  0.09075171  0.49958887    -0.14800
C542        C  0.10974376  0.11232074  0.48968124    -0.14800
C543        C  0.08381470  0.10274857  0.45217190     0.07400
C544        C  0.07903741  0.07427841  0.42032454    -0.14800
H545        H  0.09056340  0.02963121  0.40652008     0.11400
H546        H  0.14404247  0.09663265  0.53164495     0.11400
H547        H  0.11320204  0.13356712  0.51564268     0.11400
H548        H  0.05832059  0.06537360  0.39251260     0.11400
C549        C  0.15127940  0.98551276  0.77524697    -0.14800
C550        C  0.18286334  0.98840879  0.79664910     0.07400
C551        C  0.20895519  0.98454811  0.76491644    -0.14800
C552        C  0.20419395  0.97950879  0.71240889    -0.14800
C553        C  0.17360714  0.97891802  0.69071404     0.07400
C554        C  0.14685702  0.98108125  0.72303152    -0.14800
H555        H  0.13045428  0.98794680  0.79852817     0.11400
H556        H  0.23324405  0.98589590  0.78053687     0.11400
H557        H  0.22510484  0.97765630  0.68851918     0.11400
H558        H  0.12271590  0.98023987  0.70761989     0.11400
C559        C  0.15495165  0.99666407  0.21931229    -0.14800
C560        C  0.17718181  0.98671664  0.18900022     0.07400
C561        C  0.20207048  0.97830017  0.21310651    -0.14800
C562        C  0.20548045  0.98116902  0.26617998    -0.14800
C563        C  0.18347759  0.99166911  0.29607932     0.07400
C564        C  0.15782755  0.99878185  0.27213449    -0.14800
H565        H  0.13534004  0.00317117  0.20210024     0.11400
H566        H  0.21950990  0.97052737  0.19083607     0.11400
H567        H  0.22532214  0.97524316  0.28385068     0.11400
H568        H  0.14065322  0.00705510  0.29409006     0.11400
C569        C  0.98426709  0.86884008  0.92885477    -0.14800
C570        C  0.95720151  0.86314922  0.96843632     0.07400
C571        C  0.96909468  0.87791152  0.01546618    -0.14800
C572        C  0.00712745  0.90088756  0.02101960    -0.14800
C573        C  0.03410537  0.90967715  0.97963232     0.07400
C574        C  0.02226965  0.89190520  0.93431020    -0.14800
H575        H  0.97588270  0.85743702  0.89210284     0.11400
H576        H  0.94909502  0.87421992  0.04644976     0.11400
H577        H  0.01524112  0.91313060  0.05733884     0.11400
H578        H  0.04213009  0.89728377  0.90224823     0.11400
C579        C  0.13029171  0.09664560  0.99386497    -0.14800
C580        C  0.12389581  0.06617111  0.96511971     0.07400
C581        C  0.10264675  0.05987025  0.92217515    -0.14800
C582        C  0.08370617  0.07989646  0.91305981    -0.14800
C583        C  0.08666137  0.10730633  0.94581703     0.07400
C584        C  0.11251865  0.11750978  0.98351463    -0.14800
H585        H  0.14679019  0.10255554  0.02667488     0.11400
H586        H  0.09733883  0.03666186  0.89897435     0.11400
H587        H  0.06348808  0.07080702  0.88454581     0.11400
H588        H  0.11495548  0.13822157  0.00982661     0.11400
C589        C  0.66735581  0.76754942  0.78033019    -0.14800
C590        C  0.63100091  0.75251069  0.80245513     0.07400
C591        C  0.62554372  0.75598423  0.85511279    -0.14800
C592        C  0.65551926  0.77114503  0.88599441    -0.14800
C593        C  0.69144260  0.78255757  0.86490742     0.07400
C594        C  0.69727701  0.78218620  0.81136500    -0.14800
H595        H  0.67237374  0.76515549  0.74003259     0.11400
H596        H  0.59770916  0.74477356  0.87309164     0.11400
H597        H  0.65016239  0.77105968  0.92693377     0.11400
H598        H  0.72483031  0.79121336  0.79393071     0.11400
C599        C  0.53070300  0.65612687  0.46607282    -0.14800
C600        C  0.49847272  0.65114436  0.44468824     0.07400
C601        C  0.46859210  0.64725905  0.47697756    -0.14800
C602        C  0.47116478  0.64925272  0.52976248    -0.14800
C603        C  0.50385670  0.65557101  0.55121314     0.07400
C604        C  0.53345667  0.65850657  0.51893333    -0.14800
H605        H  0.55415906  0.65952342  0.44182193     0.11400
H606        H  0.44330950  0.64320727  0.46124056     0.11400
H607        H  0.44793295  0.64682281  0.55351511     0.11400
H608        H  0.55905521  0.66328710  0.53435397     0.11400
C609        C  0.46981727  0.64348959  0.97758100    -0.14800
C610        C  0.50065575  0.65043140  0.94476654     0.07400
C611        C  0.53444182  0.66016423  0.96548202    -0.14800
C612        C  0.53764255  0.66436752  0.01810607    -0.14800
C613        C  0.50697467  0.65851332  0.05082373     0.07400
C614        C  0.47286432  0.64729987  0.03006000    -0.14800
H615        H  0.44336086  0.63576596  0.96238224     0.11400
H616        H  0.55864222  0.66601729  0.94080362     0.11400
H617        H  0.56433470  0.67282414  0.03296656     0.11400
H618        H  0.44871197  0.64233194  0.05409716     0.11400
C619        C  0.62402412  0.75222121  0.36312869    -0.14800
C620        C  0.63032223  0.75292913  0.30940942     0.07400
C621        C  0.66694893  0.77273008  0.28722668    -0.14800
C622        C  0.69663933  0.78783171  0.31859590    -0.14800
C623        C  0.69023258  0.78393134  0.37256961     0.07400
C624        C  0.65372314  0.76776607  0.39441130    -0.14800
H625        H  0.59599275  0.73755424  0.38137615     0.11400
H626        H  0.67269759  0.77391528  0.24615893     0.11400
H627        H  0.72470383  0.80041992  0.30082013     0.11400
H628        H  0.64801967  0.76422471  0.43575612     0.11400
C629        C  0.33561133  0.57140401  0.70227901    -0.14800
C630        C  0.35747337  0.56272035  0.73325868     0.07400
C631        C  0.33959177  0.53467635  0.77452528    -0.14800
C632        C  0.30179045  0.51975749  0.78903908    -0.14800
C633        C  0.28067416  0.53137933  0.76125374     0.07400
C634        C  0.29736588  0.55545116  0.71581224    -0.14800
H635        H  0.34867249  0.59362075  0.67129764     0.11400
H636        H  0.35594244  0.52798210  0.79965871     0.11400
H637        H  0.28965352  0.50097538  0.82374999     0.11400
H638        H  0.28167301  0.56485498  0.69349821     0.11400
C639        C  0.09123908  0.30165152  0.86597938    -0.14800
C640        C  0.09159716  0.33414297  0.88225613     0.07400
C641        C  0.07247555  0.33086885  0.93006876    -0.14800
C642        C  0.05119054  0.29557475  0.95857950    -0.14800
C643        C  0.04885883  0.26271715  0.94039062     0.07400
C644        C  0.07025595  0.26652203  0.89471360    -0.14800
H645        H  0.10571789  0.30297355  0.82978080     0.11400
H646        H  0.07192422  0.35519645  0.94392902     0.11400
H647        H  0.03400841  0.29347765  0.99237229     0.11400
H648        H  0.06825284  0.24153362  0.87898262     0.11400
C649        C  0.18211080  0.51002296  0.52102121    -0.14800
C650        C  0.15342590  0.48144898  0.49575489     0.07400
C651        C  0.12334034  0.45116807  0.52474327    -0.14800
C652        C  0.12291164  0.44839863  0.57812059    -0.14800
C653        C  0.15227593  0.47616035  0.60337514     0.07400
C654        C  0.18140045  0.50756619  0.57451551    -0.14800
H655        H  0.20550413  0.53389668  0.49930580     0.11400
H656        H  0.10098644  0.42885572  0.50612072     0.11400
H657        H  0.09983793  0.42411229  0.59966679     0.11400
H658        H  0.20425789  0.52934725  0.59309604     0.11400
C659        C  0.17978854  0.50148601  0.07434438    -0.14800
C660        C  0.15028827  0.47085371  0.10383422     0.07400
C661        C  0.12071866  0.44293444  0.07889099    -0.14800
C662        C  0.12107116  0.44526646  0.02533712    -0.14800
C663        C  0.15129854  0.47520837  0.99595767     0.07400
C664        C  0.18041356  0.50347248  0.02091470    -0.14800
H665        H  0.20293809  0.52326951  0.09246568     0.11400
H666        H  0.09746137  0.41905802  0.10079317     0.11400
H667        H  0.09843046  0.42309803  0.00692639     0.11400
H668        H  0.20398835  0.52701147  0.99899063     0.11400
C669        C  0.30420726  0.52238449  0.29044467    -0.14800
C670        C  0.28185501  0.53128226  0.26098990     0.07400
C671        C  0.29768699  0.55409287  0.21438656    -0.14800
C672        C  0.33608441  0.57155390  0.20099300    -0.14800
C673        C  0.35901163  0.56552276  0.23321337     0.07400
C674        C  0.34222979  0.53878355  0.27612679    -0.14800
H675        H  0.29282083  0.50476418  0.32622659     0.11400
H676        H  0.28107766  0.56152079  0.19088136     0.11400
H677        H  0.34824693  0.59281202  0.16877744     0.11400
H678        H  0.35941537  0.53424773  0.30228949     0.11400
C679        C  0.07674384  0.33281736  0.43632960    -0.14800
C680        C  0.09537586  0.33637920  0.38798553     0.07400
C681        C  0.09514525  0.30406614  0.37116479    -0.14800
C682        C  0.07439133  0.26877917  0.39947280    -0.14800
C683        C  0.05292266  0.26448409  0.44528282     0.07400
C684        C  0.05555368  0.29724729  0.46444487    -0.14800
H685        H  0.07626585  0.35703526  0.45073784     0.11400
H686        H  0.10929547  0.30555606  0.33458621     0.11400
H687        H  0.07227388  0.24397475  0.38297547     0.11400
H688        H  0.03846727  0.29486386  0.49850347     0.11400
C689        C  0.22769731  0.90194494  0.85545009    -0.14800
C690        C  0.24804678  0.88546928  0.87385363     0.07400
C691        C  0.25360237  0.88602321  0.92697714    -0.14800
C692        C  0.24240316  0.90568580  0.95945400    -0.14800
C693        C  0.22449229  0.92443642  0.93994591     0.07400
C694        C  0.21599874  0.92097892  0.88813185    -0.14800
H695        H  0.22272531  0.90214710  0.81515924     0.11400
H696        H  0.26882139  0.87332507  0.94294764     0.11400
H697        H  0.25032879  0.90870146  0.99859249     0.11400
H698        H  0.20276748  0.93567564  0.87172892     0.11400
C699        C  0.23081079  0.67886933  0.81330525    -0.14800
C700        C  0.26052526  0.70180995  0.77713792     0.07400
C701        C  0.26506659  0.68594298  0.73244213    -0.14800
C702        C  0.24285192  0.64692150  0.72691558    -0.14800
C703        C  0.21497640  0.62340856  0.76525515     0.07400
C704        C  0.20796175  0.64029738  0.80695073    -0.14800
H705        H  0.22644093  0.69031696  0.84777479     0.11400
H706        H  0.28791956  0.70305618  0.70392526     0.11400
H707        H  0.24976908  0.63467895  0.69537716     0.11400
H708        H  0.18715438  0.62270244  0.83767622     0.11400
C709        C  0.39728269  0.74236681  0.70024894    -0.14800
C710        C  0.41034785  0.77276311  0.73162612     0.07400
C711        C  0.44076916  0.78031360  0.76033941    -0.14800
C712        C  0.45479608  0.75547880  0.76283345    -0.14800
C713        C  0.43946890  0.72311848  0.73540247     0.07400
C714        C  0.41209301  0.71790256  0.70168135    -0.14800
H715        H  0.37314893  0.73518432  0.67903695     0.11400
H716        H  0.45084981  0.80308974  0.78563795     0.11400
H717        H  0.47600111  0.76021990  0.78883306     0.11400
H718        H  0.39969305  0.69295248  0.68032373     0.11400
C719        C  0.32585957  0.85871933  0.50186934    -0.14800
C720        C  0.32778809  0.82802979  0.48273861     0.07400
C721        C  0.32528016  0.79940052  0.51746805    -0.14800
C722        C  0.32105320  0.80138836  0.57019101    -0.14800
C723        C  0.31870965  0.83179564  0.58946326     0.07400
C724        C  0.32097030  0.86039967  0.55478590    -0.14800
H725        H  0.32788685  0.88129667  0.47594707     0.11400
H726        H  0.32681193  0.77549786  0.50391040     0.11400
H727        H  0.31945003  0.77890479  0.59592362     0.11400
H728        H  0.31961927  0.88434748  0.56854591     0.11400
C729        C  0.31890528  0.80106368  0.06955273    -0.14800
C730        C  0.31677576  0.83140298  0.08924202     0.07400
C731        C  0.31935256  0.86042174  0.05504314    -0.14800
C732        C  0.32495660  0.85951459  0.00206325    -0.14800
C733        C  0.32726723  0.82917768  0.98251066     0.07400
C734        C  0.32380022  0.79981729  0.01679943    -0.14800
H735        H  0.31687999  0.77824748  0.09503091     0.11400
H736        H  0.31806890  0.88427491  0.06930696     0.11400
H737        H  0.32740148  0.88244791  0.97646291     0.11400
H738        H  0.32532497  0.77599681  0.00289810     0.11400
C739        C  0.22838677  0.90194520  0.35666075    -0.14800
C740        C  0.24918782  0.88595593  0.37493158     0.07400
C741        C  0.25522901  0.88691147  0.42787772    -0.14800
C742        C  0.24404791  0.90657080  0.46030399    -0.14800
C743        C  0.22567498  0.92481134  0.44082487     0.07400
C744        C  0.21662178  0.92087719  0.38932104    -0.14800
H745        H  0.22287040  0.90160492  0.31654298     0.11400
H746        H  0.27076134  0.87452897  0.44368199     0.11400
H747        H  0.25221679  0.90990033  0.49932138     0.11400
H748        H  0.20279394  0.93505039  0.37318567     0.11400
C749        C  0.26989264  0.68586556  0.22884532    -0.14800
C750        C  0.26244107  0.70152715  0.27171678     0.07400
C751        C  0.23052970  0.67845803  0.30444997    -0.14800
C752        C  0.20799094  0.64005077  0.29656088    -0.14800
C753        C  0.21744038  0.62332543  0.25692732     0.07400
C754        C  0.24800566  0.64697268  0.22204650    -0.14800
H755        H  0.29451418  0.70301774  0.20305231     0.11400
H756        H  0.22398421  0.68969322  0.33753204     0.11400
H757        H  0.18532040  0.62234443  0.32505635     0.11400
H758        H  0.25699046  0.63484003  0.19255506     0.11400
C759        C  0.39661070  0.74310565  0.20049796    -0.14800
C760        C  0.41108717  0.77501138  0.22904923     0.07400
C761        C  0.44346175  0.78482981  0.25423106    -0.14800
C762        C  0.45852751  0.76084722  0.25593427    -0.14800
C763        C  0.44188973  0.72702989  0.23157341     0.07400
C764        C  0.41216459  0.71941618  0.20134673    -0.14800
H765        H  0.37093709  0.73423662  0.18234163     0.11400
H766        H  0.45454606  0.80878837  0.27752103     0.11400
H767        H  0.48147368  0.76728512  0.27937016     0.11400
H768        H  0.39862242  0.69321590  0.18273709     0.11400
C769        C  0.60662938  0.58378899  0.65829395    -0.14800
C770        C  0.61134659  0.56339424  0.69900387     0.07400
C771        C  0.59304150  0.56006879  0.74764345    -0.14800
C772        C  0.57384098  0.57987502  0.75649287    -0.14800
C773        C  0.57276000  0.60367452  0.71692675     0.07400
C774        C  0.58764187  0.60364367  0.66714711    -0.14800
H775        H  0.62054703  0.58737474  0.62069765     0.11400
H776        H  0.59609932  0.54449036  0.78000763     0.11400
H777        H  0.56252154  0.57891502  0.79501389     0.11400
H778        H  0.58671419  0.62109642  0.63531639     0.11400
C779        C  0.75996499  0.64841291  0.54050991    -0.14800
C780        C  0.74203256  0.64472858  0.58954760     0.07400
C781        C  0.73059326  0.67076092  0.60034649    -0.14800
C782        C  0.73520284  0.69851753  0.56296639    -0.14800
C783        C  0.75240159  0.70223115  0.51351668     0.07400
C784        C  0.76565932  0.67735340  0.50302041    -0.14800
H785        H  0.76900903  0.62856425  0.53089435     0.11400
H786        H  0.71647737  0.66874815  0.63720886     0.11400
H787        H  0.72475626  0.71710426  0.57320986     0.11400
H788        H  0.77933224  0.67955613  0.46574294     0.11400
C789        C  0.67505917  0.47990913  0.90246972    -0.14800
C790        C  0.68351190  0.51503944  0.87844170     0.07400
C791        C  0.68958220  0.54499669  0.90836486    -0.14800
C792        C  0.68673607  0.53972775  0.96164590    -0.14800
C793        C  0.67848367  0.50466294  0.98561784     0.07400
C794        C  0.67293027  0.47486610  0.95579957    -0.14800
H795        H  0.67035213  0.45649588  0.88003189     0.11400
H796        H  0.69586405  0.57229108  0.89060713     0.11400
H797        H  0.69135593  0.56313934  0.98406455     0.11400
H798        H  0.66641170  0.44755245  0.97376098     0.11400
C799        C  0.69670778  0.54651738  0.40564289    -0.14800
C800        C  0.68433223  0.51419636  0.37791902     0.07400
C801        C  0.67258968  0.47887529  0.40450294    -0.14800
C802        C  0.67353974  0.47608220  0.45780223    -0.14800
C803        C  0.68547422  0.50839229  0.48522710     0.07400
C804        C  0.69693030  0.54356419  0.45885228    -0.14800
H805        H  0.70573026  0.57412816  0.38632443     0.11400
H806        H  0.66284675  0.45352525  0.38415828     0.11400
H807        H  0.66425663  0.44859511  0.47773676     0.11400
H808        H  0.70632080  0.56881263  0.47937802     0.11400
C809        C  0.60074613  0.58033718  0.15877245    -0.14800
C810        C  0.60602845  0.56068649  0.19999682     0.07400
C811        C  0.59004531  0.56002042  0.24927943    -0.14800
C812        C  0.57269474  0.58156294  0.25803396    -0.14800
C813        C  0.57096563  0.60440017  0.21770595     0.07400
C814        C  0.58358875  0.60202638  0.16756686    -0.14800
H815        H  0.61291939  0.58189375  0.12058607     0.11400
H816        H  0.59362504  0.54517683  0.28205396     0.11400
H817        H  0.56324910  0.58256640  0.29689863     0.11400
H818        H  0.58216820  0.61882927  0.13529593     0.11400
C819        C  0.72759442  0.69370959  0.05801676    -0.14800
C820        C  0.74816492  0.69940948  0.01059126     0.07400
C821        C  0.76260879  0.67526201  0.00192675    -0.14800
C822        C  0.75520271  0.64540505  0.03903148    -0.14800
C823        C  0.73427577  0.63994371  0.08610980     0.07400
C824        C  0.72113978  0.66492128  0.09509088    -0.14800
H825        H  0.71624900  0.71177171  0.06705196     0.11400
H826        H  0.77885730  0.67894244  0.96638129     0.11400
H827        H  0.76565237  0.62645747  0.03082586     0.11400
H828        H  0.70465368  0.66148206  0.13033793     0.11400
C829        C  0.57832061  0.30502261  0.75590761    -0.14800
C830        C  0.55754506  0.28949085  0.71352134     0.07400
C831        C  0.54907135  0.31234868  0.68168900    -0.14800
C832        C  0.56341077  0.35065892  0.68981543    -0.14800
C833        C  0.58765928  0.36725934  0.72861537     0.07400
C834        C  0.59372364  0.34372246  0.76293905    -0.14800
H835        H  0.58545570  0.28801190  0.78090053     0.11400
H836        H  0.53302270  0.30110669  0.64895971     0.11400
H837        H  0.55932561  0.36842277  0.66172262     0.11400
H838        H  0.61351226  0.35593535  0.79166186     0.11400
C839        C  0.41788390  0.01405153  0.69017284    -0.14800
C840        C  0.43375338  0.03748333  0.72994710     0.07400
C841        C  0.43022603  0.02012912  0.77966401    -0.14800
C842        C  0.40818549  0.98069460  0.79036491    -0.14800
C843        C  0.38905540  0.95770003  0.75158645     0.07400
C844        C  0.39572995  0.97470636  0.70090023    -0.14800
H845        H  0.41968615  0.02628772  0.65171398     0.11400
H846        H  0.44219612  0.03738284  0.81131040     0.11400
H847        H  0.40374338  0.96869616  0.82964181     0.11400
H848        H  0.38175076  0.95776589  0.66982963     0.11400
C849        C  0.33094863  0.07388275  0.64629549    -0.14800
C850        C  0.36585064  0.10342933  0.62645989     0.07400
C851        C  0.37039441  0.11578970  0.57372363    -0.14800
C852        C  0.34100642  0.09871422  0.54173716    -0.14800
C853        C  0.30630288  0.06866366  0.56153844     0.07400
C854        C  0.30170381  0.05683911  0.61442880    -0.14800
H855        H  0.32634662  0.06341254  0.68633783     0.11400
H856        H  0.39695507  0.13843420  0.55681565     0.11400
H857        H  0.34567240  0.10856222  0.50143487     0.11400
H858        H  0.27536859  0.03390629  0.63145221     0.11400
C859        C  0.52570353  0.19513163  0.96696709    -0.14800
C860        C  0.49865432  0.16755003  0.00311861     0.07400
C861        C  0.46500112  0.13941213  0.98642443    -0.14800
C862        C  0.45883365  0.13856101  0.93429253    -0.14800
C863        C  0.48647940  0.16543964  0.89801351     0.07400
C864        C  0.51981718  0.19388679  0.91487914    -0.14800
H865        H  0.55182028  0.21722214  0.97881125     0.11400
H866        H  0.44353994  0.11799735  0.01359033     0.11400
H867        H  0.43300729  0.11613158  0.92220447     0.11400
H868        H  0.54154860  0.21496810  0.88767775     0.11400
C869        C  0.46076689  0.13538098  0.43420285    -0.14800
C870        C  0.48912473  0.16101776  0.39776625     0.07400
C871        C  0.52252266  0.18952744  0.41435143    -0.14800
C872        C  0.52754453  0.19236849  0.46657959    -0.14800
C873        C  0.49953144  0.16630390  0.50302585     0.07400
C874        C  0.46605222  0.13779915  0.48647679    -0.14800
H875        H  0.43489890  0.11293710  0.42223440     0.11400
H876        H  0.54475326  0.20964933  0.38689658     0.11400
H877        H  0.55359764  0.21458884  0.47840161     0.11400
H878        H  0.44394259  0.11746451  0.51389533     0.11400
C879        C  0.54537008  0.30593132  0.19080329    -0.14800
C880        C  0.55687780  0.28434531  0.21972636     0.07400
C881        C  0.57956906  0.30075651  0.26015668    -0.14800
C882        C  0.59416465  0.33940194  0.26718626    -0.14800
C883        C  0.58540187  0.36190947  0.23491714     0.07400
C884        C  0.55898427  0.34412727  0.19896932    -0.14800
H885        H  0.52761577  0.29388708  0.15985043     0.11400
H886        H  0.58886869  0.28466786  0.28309958     0.11400
H887        H  0.61543104  0.35250895  0.29380031     0.11400
H888        H  0.55257675  0.36100036  0.17253191     0.11400
C889        C  0.43227289  0.01711542  0.27882456    -0.14800
C890        C  0.43609477  0.03451281  0.22901299     0.07400
C891        C  0.42028169  0.01110860  0.18921802    -0.14800
C892        C  0.39760824  0.97183459  0.20006860    -0.14800
C893        C  0.39019590  0.95495284  0.25094516     0.07400
C894        C  0.40956944  0.97779398  0.28969456    -0.14800
H895        H  0.44433442  0.03432035  0.31048479     0.11400
H896        H  0.42242965  0.02335886  0.15065417     0.11400
H897        H  0.38363818  0.95496129  0.16894345     0.11400
H898        H  0.40475662  0.96586917  0.32906997     0.11400
C899        C  0.30441029  0.05463199  0.11287843    -0.14800
C900        C  0.30912326  0.06803756  0.06052534     0.07400
C901        C  0.34354651  0.09925117  0.04226977    -0.14800
C902        C  0.37251723  0.11587983  0.07506692    -0.14800
C903        C  0.36791636  0.10184465  0.12710350     0.07400
C904        C  0.33325660  0.07122337  0.14553724    -0.14800
H905        H  0.27827821  0.03079342  0.12889983     0.11400
H906        H  0.34829919  0.11046240  0.00255369     0.11400
H907        H  0.39886057  0.13950849  0.05926840     0.11400
H908        H  0.32859141  0.05951297  0.18500363     0.11400
C909        C  0.89595684  0.21664238  0.65150326    -0.14800
C910        C  0.88915252  0.24508915  0.63197495     0.07400
C911        C  0.89463604  0.25439972  0.57831416    -0.14800
C912        C  0.90704977  0.23623674  0.54524262    -0.14800
C913        C  0.91421180  0.20807962  0.56477724     0.07400
C914        C  0.90815014  0.19828877  0.61833400    -0.14800
H915        H  0.89232617  0.20888181  0.69242073     0.11400
H916        H  0.88962232  0.27611769  0.56164683     0.11400
H917        H  0.91141454  0.24456242  0.50444011     0.11400
H918        H  0.91322813  0.17659765  0.63486425     0.11400
C919        C  0.75122829  0.40597096  0.77878510    -0.14800
C920        C  0.78477840  0.41633517  0.75040139     0.07400
C921        C  0.79905555  0.44722616  0.71294432    -0.14800
C922        C  0.77772495  0.46354343  0.69869201    -0.14800
C923        C  0.74248242  0.45049805  0.72348354     0.07400
C924        C  0.73048828  0.42338185  0.76592720    -0.14800
H925        H  0.73899535  0.38155771  0.80660781     0.11400
H926        H  0.82446229  0.45515364  0.68966444     0.11400
H927        H  0.78774517  0.48463693  0.66630045     0.11400
H928        H  0.70331625  0.41287440  0.78577126     0.11400
C929        C  0.65823756  0.20602615  0.70135954    -0.14800
C930        C  0.63553544  0.21164836  0.73722098     0.07400
C931        C  0.65246589  0.23685212  0.77505254    -0.14800
C932        C  0.69150433  0.25898047  0.77335348    -0.14800
C933        C  0.71390246  0.25663922  0.73320487     0.07400
C934        C  0.69693248  0.22841528  0.69911733    -0.14800
H935        H  0.64588523  0.18707301  0.67142811     0.11400
H936        H  0.63568305  0.24235426  0.80237049     0.11400
H937        H  0.70387305  0.28065209  0.80002617     0.11400
H938        H  0.71343967  0.22576003  0.66806584     0.11400
C939        C  0.99230385  0.40570464  0.70281494    -0.14800
C940        C  0.96182903  0.38713434  0.73930209     0.07400
C941        C  0.96863889  0.38947021  0.79196043    -0.14800
C942        C  0.00496089  0.40639176  0.80776104    -0.14800
C943        C  0.03537845  0.42138485  0.77115369     0.07400
C944        C  0.02866707  0.42266227  0.71863355    -0.14800
H945        H  0.98816890  0.40385630  0.66222119     0.11400
H946        H  0.94559979  0.37503509  0.82106056     0.11400
H947        H  0.00898370  0.40422143  0.84816351     0.11400
H948        H  0.05166789  0.43376694  0.68940145     0.11400
C949        C  0.82524702  0.33987376  0.93187527    -0.14800
C950        C  0.84923120  0.32999464  0.90638407     0.07400
C951        C  0.87728222  0.32881593  0.93368928    -0.14800
C952        C  0.87979898  0.33523416  0.98606863    -0.14800
C953        C  0.85414837  0.34268638  0.01200197     0.07400
C954        C  0.82766488  0.34607355  0.98389289    -0.14800
H955        H  0.80380889  0.34174931  0.91206381     0.11400
H956        H  0.89675630  0.32202896  0.91491163     0.11400
H957        H  0.90044775  0.33246458  0.00671049     0.11400
H958        H  0.80772151  0.35221844  0.00274381     0.11400
C959        C  0.81937436  0.33669964  0.43207693    -0.14800
C960        C  0.84515170  0.32909145  0.40687630     0.07400
C961        C  0.87350270  0.32921582  0.43493418    -0.14800
C962        C  0.87510436  0.33546354  0.48740321    -0.14800
C963        C  0.84814021  0.34127145  0.51287499     0.07400
C964        C  0.82077843  0.34255948  0.48427406    -0.14800
H965        H  0.79744458  0.33719037  0.41178446     0.11400
H966        H  0.89422247  0.32402195  0.41648818     0.11400
H967        H  0.89641465  0.33423238  0.50836972     0.11400
H968        H  0.79966623  0.34721826  0.50266931     0.11400
C969        C  0.89031632  0.21105496  0.15321815    -0.14800
C970        C  0.88570234  0.24111828  0.13426686     0.07400
C971        C  0.89201976  0.25108823  0.08069368    -0.14800
C972        C  0.90415981  0.23281000  0.04743917    -0.14800
C973        C  0.91030088  0.20384434  0.06659466     0.07400
C974        C  0.90246171  0.19268079  0.11982476    -0.14800
H975        H  0.88558509  0.20243996  0.19394322     0.11400
H976        H  0.88832595  0.27376935  0.06426242     0.11400
H977        H  0.90967177  0.24209808  0.00689250     0.11400
H978        H  0.90660421  0.17024271  0.13604894     0.11400
C979        C  0.79945871  0.45040819  0.20054604    -0.14800
C980        C  0.78909072  0.42166807  0.24055568     0.07400
C981        C  0.75717523  0.41138642  0.27292337    -0.14800
C982        C  0.73388197  0.42618868  0.26164796    -0.14800
C983        C  0.74171038  0.45068435  0.21711856     0.07400
C984        C  0.77555051  0.46398305  0.18804449    -0.14800
H985        H  0.82361392  0.45839582  0.17435928     0.11400
H986        H  0.74792219  0.38868790  0.30301513     0.11400
H987        H  0.70791559  0.41557458  0.28487910     0.11400
H988        H  0.78248973  0.48314102  0.15396398     0.11400
C989        C  0.70014453  0.23299129  0.19321529    -0.14800
C990        C  0.71608303  0.26160153  0.22698274     0.07400
C991        C  0.69324324  0.26242954  0.26781718    -0.14800
C992        C  0.65451937  0.23757261  0.27128958    -0.14800
C993        C  0.63832608  0.21113233  0.23458202     0.07400
C994        C  0.66183901  0.20779298  0.19739026    -0.14800
H995        H  0.71703975  0.23159317  0.16155359     0.11400
H996        H  0.70480997  0.28445696  0.29414147     0.11400
H997        H  0.63702975  0.24165307  0.29921817     0.11400
H998        H  0.65004181  0.18827862  0.16790225     0.11400
C999        C  0.99252706  0.40467593  0.20819298    -0.14800
C1000       C  0.96218376  0.38426907  0.24445435     0.07400
C1001       C  0.96882055  0.38573253  0.29715701    -0.14800
C1002       C  0.00510971  0.40373957  0.31300171    -0.14800
C1003       C  0.03557581  0.42058488  0.27640104     0.07400
C1004       C  0.02885839  0.42252480  0.22405530    -0.14800
H1005       H  0.98845253  0.40373616  0.16755296     0.11400
H1006       H  0.94584938  0.37017480  0.32609724     0.11400
H1007       H  0.00926418  0.40102325  0.35324897     0.11400
H1008       H  0.05195705  0.43487790  0.19488486     0.11400
loop_ 
_geom_bond_atom_site_label_1 
_geom_bond_atom_site_label_2 
_geom_bond_distance 
_geom_bond_site_symmetry_2 
_ccdc_geom_bond_type 
O1           Ni7   1.912       .  S
O1           C22   1.271       .  A
O2          Ni25   1.918       .  S
O2           C11   1.278       .  A
O3           Ni7   1.877       .  S
O3          Ni25   1.887       .  S
O3          Ni19   1.881       .  S
O3           H26   0.967       .  S
C4           O21   1.262       .  A
C4           O13   1.279       .  A
C4          C970   1.497       .  S
O5          Ni24   1.937       .  S
O5           C11   1.277       .  A
O6          Ni24   1.897       .  S
O6            C8   1.271       .  A
Ni7          O10   1.900       .  S
Ni7          O12   1.914       .  S
C8           O18   1.290       .  A
C8         C1000   1.490       .  S
O9          Ni25   1.957       .  S
O9           C15   1.294       .  A
O10          C15   1.276       .  A
C11         C960   1.490       .  S
O12          C14   1.268       .  A
O13         Ni24   1.958       .  S
C14          O20   1.270       .  A
C14         C990   1.486       .  S
C15         C980   1.476       .  S
H16          O17   0.966       .  S
O17         Ni25   1.948       .  S
O17         Ni19   1.915       .  S
O17         Ni24   1.901       .  S
O18         Ni19   1.969       .  S
Ni19         O23   1.924       .  S
Ni19         O21   1.893       .  S
O20         Ni25   1.942       .  S
C22          O23   1.277       .  A
C22         C953   1.481       .  S
O27         Ni33   1.920       .  S
O27          C48   1.274       .  A
O28         Ni51   1.911       .  S
O28          C37   1.275       .  A
O29         Ni33   1.882       .  S
O29         Ni51   1.888       .  S
O29         Ni45   1.884       .  S
O29          H52   0.967       .  S
C30          O47   1.265       .  A
C30          O39   1.278       .  A
C30         C910   1.494       .  S
O31         Ni50   1.935       .  S
O31          C37   1.275       .  A
O32         Ni50   1.893       .  S
O32          C34   1.269       .  A
Ni33         O36   1.915       .  S
Ni33         O38   1.913       .  S
C34          O44   1.291       .  A
C34         C940   1.491       .  S
O35         Ni51   1.943       .  S
O35          C41   1.288       .  A
O36          C41   1.277       .  A
C37         C950   1.488       .  S
O38          C40   1.268       .  A
O39         Ni50   1.948       .  S
C40          O46   1.272       .  A
C40         C933   1.487       .  S
C41         C920   1.470       .  S
H42          O43   0.966       .  S
O43         Ni51   1.941       .  S
O43         Ni45   1.915       .  S
O43         Ni50   1.901       .  S
O44         Ni45   1.976       .  S
Ni45         O49   1.921       .  S
Ni45         O47   1.901       .  S
O46         Ni51   1.951       .  S
C48          O49   1.278       .  A
C48         C963   1.484       .  S
O53         Ni59   1.938       .  S
O53          C74   1.275       .  A
O54         Ni77   1.892       .  S
O54          C63   1.269       .  A
O55         Ni59   1.903       .  S
O55         Ni77   1.887       .  S
O55         Ni71   1.875       .  S
O55          H78   0.967       .  S
C56          O73   1.254       .  A
C56          O65   1.276       .  A
C56         C903   1.499       .  S
O57         Ni76   1.924       .  S
O57          C63   1.275       .  A
O58         Ni76   1.882       .  S
O58          C60   1.268       .  A
Ni59         O62   1.918       .  S
Ni59         O64   1.929       .  S
C60          O70   1.295       .  A
C60         C890   1.492       .  S
O61         Ni77   1.944       .  S
O61          C67   1.287       .  A
O62          C67   1.277       .  A
C63         C870   1.468       .  S
O64          C66   1.271       .  A
O65         Ni76   1.970       .  S
C66          O72   1.265       .  A
C66         C880   1.484       .  S
C67         C993   1.478       .  S
H68          O69   0.966       .  S
O69         Ni77   1.959       .  S
O69         Ni71   1.901       .  S
O69         Ni76   1.916       .  S
O70         Ni71   1.994       .  S
Ni71         O75   1.885       .  S
Ni71         O73   1.888       .  S
O72         Ni77   1.928       .  S
C74          O75   1.264       .  A
C74         C860   1.473       .  S
O79         Ni85   1.935       .  S
O79         C100   1.274       .  A
O80        Ni103   1.892       .  S
O80          C89   1.269       .  A
O81         Ni85   1.907       .  S
O81        Ni103   1.886       .  S
O81         Ni97   1.876       .  S
O81         H104   0.967       .  S
C82          O99   1.255       .  A
C82          O91   1.276       .  A
C82         C850   1.498       .  S
O83        Ni102   1.927       .  S
O83          C89   1.275       .  A
O84        Ni102   1.885       .  S
O84          C86   1.268       .  A
Ni85         O88   1.921       .  S
Ni85         O90   1.927       .  S
C86          O96   1.293       .  A
C86         C840   1.492       .  S
O87        Ni103   1.943       .  S
O87          C93   1.286       .  A
O88          C93   1.278       .  A
C89         C863   1.472       .  S
O90          C92   1.270       .  A
O91        Ni102   1.968       .  S
C92          O98   1.266       .  A
C92         C830   1.484       .  S
C93         C930   1.480       .  S
H94          O95   0.966       .  S
O95        Ni103   1.957       .  S
O95         Ni97   1.905       .  S
O95        Ni102   1.920       .  S
O96         Ni97   1.989       .  S
Ni97        O101   1.882       .  S
Ni97         O99   1.889       .  S
O98        Ni103   1.927       .  S
C100        O101   1.263       .  A
C100        C873   1.469       .  S
O105       Ni111   1.930       .  S
O105        C126   1.274       .  A
O106       Ni129   1.910       .  S
O106        C115   1.274       .  A
O107       Ni111   1.900       .  S
O107       Ni129   1.882       .  S
O107       Ni123   1.876       .  S
O107        H130   0.966       .  S
C108        O125   1.256       .  A
C108        O117   1.274       .  A
C108        C823   1.495       .  S
O109       Ni128   1.909       .  S
O109        C115   1.273       .  A
O110       Ni128   1.884       .  S
O110        C112   1.268       .  A
Ni111       O114   1.917       .  S
Ni111       O116   1.927       .  S
C112        O122   1.296       .  A
C112        C810   1.493       .  S
O113       Ni129   1.946       .  S
O113        C119   1.288       .  A
O114        C119   1.276       .  A
C115        C800   1.474       .  S
O116        C118   1.271       .  A
O117       Ni128   1.960       .  S
C118        O124   1.267       .  A
C118        C983   1.484       .  S
C119        C883   1.473       .  S
H120        O121   0.964       .  S
O121       Ni129   1.962       .  S
O121       Ni123   1.898       .  S
O121       Ni128   1.903       .  S
O122       Ni123   2.000       .  S
Ni123       O127   1.876       .  S
Ni123       O125   1.906       .  S
O124       Ni129   1.931       .  S
C126        O127   1.264       .  A
C126        C793   1.460   1_554  S
O131       Ni137   1.931       .  S
O131        C152   1.275       .  A
O132       Ni155   1.903       .  S
O132        C141   1.272       .  A
O133       Ni137   1.897       .  S
O133       Ni155   1.878       .  S
O133       Ni149   1.871       .  S
O133        H156   0.966       .  S
C134        O151   1.254       .  A
C134        O143   1.273       .  A
C134        C780   1.490       .  S
O135       Ni154   1.907       .  S
O135        C141   1.272       .  A
O136       Ni154   1.883       .  S
O136        C138   1.269       .  A
Ni137       O140   1.914       .  S
Ni137       O142   1.929       .  S
C138        O148   1.299       .  A
C138        C770   1.493       .  S
O139       Ni155   1.944       .  S
O139        C145   1.289       .  A
O140        C145   1.275       .  A
C141        C790   1.463       .  S
O142        C144   1.272       .  A
O143       Ni154   1.955       .  S
C144        O150   1.266       .  A
C144        C923   1.480       .  S
C145        C833   1.470       .  S
H146        O147   0.965       .  S
O147       Ni155   1.958       .  S
O147       Ni149   1.897       .  S
O147       Ni154   1.905       .  S
O148       Ni149   2.005       .  S
Ni149       O153   1.885       .  S
Ni149       O151   1.899       .  S
O150       Ni155   1.927       .  S
C152        O153   1.267       .  A
C152        C803   1.464       .  S
O157       Ni163   1.943       .  S
O157        C178   1.278       .  A
O158       Ni181   1.887       .  S
O158        C167   1.266       .  A
O159       Ni163   1.898       .  S
O159       Ni181   1.880       .  S
O159       Ni175   1.873       .  S
O159        H182   0.967       .  S
C160        O177   1.257       .  A
C160        O169   1.275       .  A
C160        C740   1.498       .  S
O161       Ni180   1.932       .  S
O161        C167   1.273       .  A
O162       Ni180   1.893       .  S
O162        C164   1.271       .  A
Ni163       O166   1.922       .  S
Ni163       O168   1.934       .  S
C164        O174   1.290       .  A
C164        C893   1.494       .  S
O165       Ni181   1.935       .  S
O165        C171   1.285       .  A
O166        C171   1.279       .  A
C167        C730   1.474       .  S
O168        C170   1.273       .  A
O169       Ni180   1.954       .  S
C170        O176   1.266       .  A
C170        C750   1.490       .  S
C171        C760   1.470       .  S
H172        O173   0.966       .  S
O173       Ni181   1.956       .  S
O173       Ni175   1.921       .  S
O173       Ni180   1.928       .  S
O174       Ni175   1.974       .  S
Ni175       O179   1.888       .  S
Ni175       O177   1.890       .  S
O176       Ni181   1.928       .  S
C178        O179   1.266       .  A
C178        C720   1.477       .  S
O183       Ni189   1.934       .  S
O183        C204   1.276       .  A
O184       Ni207   1.884       .  S
O184        C193   1.265       .  A
O185       Ni189   1.900       .  S
O185       Ni207   1.884       .  S
O185       Ni201   1.881       .  S
O185        H208   0.967       .  S
C186        O203   1.259       .  A
C186        O195   1.278       .  A
C186        C690   1.502       .  S
O187       Ni206   1.941       .  S
O187        C193   1.276       .  A
O188       Ni206   1.895       .  S
O188        C190   1.271       .  A
Ni189       O192   1.916       .  S
Ni189       O194   1.930       .  S
C190        O200   1.290       .  A
C190        C843   1.495       .  S
O191       Ni207   1.946       .  S
O191        C197   1.287       .  A
O192        C197   1.277       .  A
C193        C723   1.477       .  S
O194        C196   1.272       .  A
O195       Ni206   1.959       .  S
C196        O202   1.265       .  A
C196        C700   1.487       .  S
C197        C710   1.477       .  S
H198        O199   0.966       .  S
O199       Ni207   1.952       .  S
O199       Ni201   1.917       .  S
O199       Ni206   1.923       .  S
O200       Ni201   1.972       .  S
Ni201       O205   1.893       .  S
Ni201       O203   1.892       .  S
O202       Ni207   1.922       .  S
C204        O205   1.268       .  A
C204        C733   1.476       .  S
O209       Ni215   1.920       .  S
O209        C230   1.275       .  A
O210       Ni233   1.910       .  S
O210        C219   1.274       .  A
O211       Ni215   1.884       .  S
O211       Ni233   1.871       .  S
O211       Ni227   1.885       .  S
O211        H234   0.967       .  S
C212        O229   1.265       .  A
C212        O221   1.273       .  A
C212        C680   1.504       .  S
O213       Ni232   1.917       .  S
O213        C219   1.272       .  A
O214       Ni232   1.895       .  S
O214        C216   1.271       .  A
Ni215       O218   1.917       .  S
Ni215       O220   1.928       .  S
C216        O226   1.291       .  A
C216       C1003   1.486       .  S
O217       Ni233   1.961       .  S
O217        C223   1.296       .  A
O218        C223   1.278       .  A
C219        C660   1.475       .  S
O220        C222   1.271       .  A
O221       Ni232   1.942       .  S
C222        O228   1.265       .  A
C222        C670   1.486       .  S
C223        C753   1.482       .  S
H224        O225   0.965       .  S
O225       Ni233   1.964       .  S
O225       Ni227   1.918       .  S
O225       Ni232   1.903       .  S
O226       Ni227   1.971       .  S
Ni227       O231   1.900       .  S
Ni227       O229   1.920       .  S
O228       Ni233   1.924       .  S
C230        O231   1.275       .  A
C230        C650   1.469       .  S
O235       Ni241   1.921       .  S
O235        C256   1.276       .  A
O236       Ni259   1.906       .  S
O236        C245   1.272       .  A
O237       Ni241   1.879       .  S
O237       Ni259   1.866       .  S
O237       Ni253   1.881       .  S
O237        H260   0.968       .  S
C238        O255   1.261       .  A
C238        O247   1.273       .  A
C238        C640   1.502       .  S
O239       Ni258   1.911       .  S
O239        C245   1.271       .  A
O240       Ni258   1.893       .  S
O240        C242   1.272       .  A
Ni241       O244   1.917       .  S
Ni241       O246   1.931       .  S
C242        O252   1.295       .  A
C242        C943   1.491       .  S
O243       Ni259   1.959       .  S
O243        C249   1.296       .  A
O244        C249   1.280       .  A
C245        C653   1.470       .  S
O246        C248   1.271       .  A
O247       Ni258   1.947       .  S
C248        O254   1.264       .  A
C248        C633   1.486       .  S
C249        C703   1.482       .  S
H250        O251   0.965       .  S
O251       Ni259   1.972       .  S
O251       Ni253   1.918       .  S
O251       Ni258   1.906       .  S
O252       Ni253   1.978       .  S
Ni253       O257   1.901       .  S
Ni253       O255   1.907       .  S
O254       Ni259   1.923       .  S
C256        O257   1.275       .  A
C256        C663   1.471       .  S
O261       Ni267   1.915       .  S
O261        C282   1.270       .  A
O262       Ni285   1.910       .  S
O262        C271   1.275       .  A
O263       Ni267   1.886       .  S
O263       Ni285   1.882       .  S
O263       Ni279   1.876       .  S
O263        H286   0.967       .  S
C264        O281   1.260       .  A
C264        O273   1.275       .  A
C264        C620   1.485       .  S
O265       Ni284   1.921       .  S
O265        C271   1.273       .  A
O266       Ni284   1.904       .  S
O266        C268   1.272       .  A
Ni267       O270   1.909       .  S
Ni267       O272   1.915       .  S
C268        O278   1.289       .  A
C268        C813   1.497       .  S
O269       Ni285   1.953       .  S
O269        C275   1.293       .  A
O270        C275   1.277       .  A
C271        C613   1.479       .  S
O272        C274   1.266       .  A
O273       Ni284   1.946       .  S
C274        O280   1.268       .  A
C274        C763   1.478       .  S
C275        C673   1.476       .  S
H276        O277   0.966       .  S
O277       Ni285   1.949       .  S
O277       Ni279   1.912       .  S
O277       Ni284   1.906       .  S
O278       Ni279   1.968       .  S
Ni279       O283   1.902       .  S
Ni279       O281   1.887       .  S
O280       Ni285   1.938       .  S
C282        O283   1.271       .  A
C282        C600   1.467       .  S
O287       Ni293   1.915       .  S
O287        C308   1.270       .  A
O288       Ni311   1.909       .  S
O288        C297   1.275       .  A
O289       Ni293   1.886       .  S
O289       Ni311   1.889       .  S
O289       Ni305   1.884       .  S
O289        H312   0.967       .  S
C290        O307   1.264       .  A
C290        O299   1.275       .  A
C290        C590   1.481       .  S
O291       Ni310   1.919       .  S
O291        C297   1.272       .  A
O292       Ni310   1.898       .  S
O292        C294   1.270       .  A
Ni293       O296   1.905       .  S
Ni293       O298   1.917       .  S
C294        O304   1.288       .  A
C294        C773   1.498       .  S
O295       Ni311   1.952       .  S
O295        C301   1.292       .  A
O296        C301   1.277       .  A
C297        C603   1.475       .  S
O298        C300   1.268       .  A
O299       Ni310   1.941       .  S
C300        O306   1.268       .  A
C300        C713   1.482       .  S
C301        C630   1.476       .  S
H302        O303   0.966       .  S
O303       Ni311   1.943       .  S
O303       Ni305   1.907       .  S
O303       Ni310   1.900       .  S
O304       Ni305   1.970       .  S
Ni305       O309   1.908       .  S
Ni305       O307   1.895       .  S
O306       Ni311   1.937       .  S
C308        O309   1.272       .  A
C308        C610   1.470       .  S
O313       Ni319   1.931   1_545  S
O313        C334   1.281   1_545  A
O314       Ni337   1.906       .  S
O314        C323   1.276       .  A
O315       Ni319   1.863       .  S
O315       Ni337   1.860   1_554  S
O315       Ni331   1.866       .  S
O315        H338   0.967       .  S
C316        O333   1.259       .  A
C316        O325   1.279   1_554  A
C316        C900   1.502       .  S
O317       Ni336   1.946       .  S
O317        C323   1.281   1_545  A
O318       Ni336   1.904   1_565  S
O318        C320   1.272       .  A
Ni319       O322   1.922       .  S
Ni319       O324   1.936   1_565  S
C320        O330   1.291   1_556  A
C320        C693   1.485       .  S
O321       Ni337   1.949       .  S
O321        C327   1.298       .  A
O322        C327   1.284   1_554  A
C323        C550   1.486       .  S
O324        C326   1.273   1_554  A
O325       Ni336   1.965       .  S
C326        O332   1.265       .  A
C326        C580   1.491       .  S
C327        C573   1.490       .  S
H328        O329   0.966       .  S
O329       Ni337   1.949   1_545  S
O329       Ni331   1.909   1_546  S
O329       Ni336   1.899       .  S
O330       Ni331   1.970       .  S
Ni331       O335   1.909       .  S
Ni331       O333   1.895   1_565  S
O332       Ni337   1.923   1_545  S
C334        O335   1.281       .  A
C334        C560   1.484       .  S
O339       Ni345   1.930       .  S
O339        C360   1.280       .  A
O340       Ni363   1.912       .  S
O340        C349   1.275       .  A
O341       Ni345   1.869       .  S
O341       Ni363   1.871       .  S
O341       Ni357   1.866       .  S
O341        H364   0.967       .  S
C342        O359   1.261       .  A
C342        O351   1.277       .  A
C342        C853   1.498       .  S
O343       Ni362   1.942       .  S
O343        C349   1.278   1_545  A
O344       Ni362   1.903   1_565  S
O344        C346   1.271       .  A
Ni345       O348   1.915       .  S
Ni345       O350   1.933   1_565  S
C346        O356   1.288       .  A
C346        C743   1.480       .  S
O347       Ni363   1.940       .  S
O347        C353   1.295       .  A
O348        C353   1.281       .  A
C349        C563   1.482       .  S
O350        C352   1.272       .  A
O351       Ni362   1.956       .  S
C352        O358   1.264       .  A
C352        C540   1.484       .  S
C353        C530   1.478       .  S
H354        O355   0.966       .  S
O355       Ni363   1.944   1_545  S
O355       Ni357   1.913   1_545  S
O355       Ni362   1.902       .  S
O356       Ni357   1.961       .  S
Ni357       O361   1.911       .  S
Ni357       O359   1.895   1_565  S
O358       Ni363   1.918   1_545  S
C360        O361   1.279       .  A
C360        C553   1.483       .  S
O365       Ni371   1.925   1_655  S
O365        C386   1.273       .  A
O366       Ni389   1.908   1_655  S
O366        C375   1.273       .  A
O367       Ni371   1.896       .  S
O367       Ni389   1.877   1_554  S
O367       Ni383   1.870   1_455  S
O367        H390   0.966       .  S
C368        O385   1.254       .  A
C368        O377   1.272   1_554  A
C368        C973   1.495       .  S
O369       Ni388   1.910       .  S
O369        C375   1.273       .  A
O370       Ni388   1.877       .  S
O370        C372   1.269   1_655  A
Ni371       O374   1.909       .  S
Ni371       O376   1.923   1_455  S
C372        O382   1.298   1_556  A
C372        C643   1.487       .  S
O373       Ni389   1.955       .  S
O373        C379   1.291       .  A
O374        C379   1.276   1_554  A
C375        C500   1.468       .  S
O376        C378   1.270   1_554  A
O377       Ni388   1.957       .  S
C378        O384   1.267       .  A
C378        C520   1.490       .  S
C379        C583   1.478       .  S
H380        O381   0.966       .  S
O381       Ni389   1.964   1_655  S
O381       Ni383   1.900   1_556  S
O381       Ni388   1.913       .  S
O382       Ni383   2.004   1_455  S
Ni383       O387   1.890       .  S
Ni383       O385   1.893       .  S
O384       Ni389   1.922   1_655  S
C386        O387   1.269       .  A
C386        C510   1.466       .  S
O391       Ni397   1.925   1_655  S
O391        C412   1.272       .  A
O392       Ni415   1.908   1_655  S
O392        C401   1.274       .  A
O393       Ni397   1.892       .  S
O393       Ni415   1.876       .  S
O393       Ni409   1.866   1_455  S
O393        H416   0.966       .  S
C394        O411   1.252       .  A
C394        O403   1.271       .  A
C394        C913   1.492       .  S
O395       Ni414   1.911       .  S
O395        C401   1.273       .  A
O396       Ni414   1.874       .  S
O396        C398   1.269   1_655  A
Ni397       O400   1.907       .  S
Ni397       O402   1.919   1_455  S
C398        O408   1.300       .  A
C398        C683   1.489       .  S
O399       Ni415   1.951       .  S
O399        C405   1.292       .  A
O400        C405   1.277       .  A
C401        C513   1.469       .  S
O402        C404   1.269       .  A
O403       Ni414   1.957       .  S
C404        O410   1.268       .  A
C404        C490   1.491       .  S
C405        C543   1.473       .  S
H406        O407   0.966       .  S
O407       Ni415   1.963   1_655  S
O407       Ni409   1.899       .  S
O407       Ni414   1.913       .  S
O408       Ni409   2.009   1_455  S
Ni409       O413   1.890       .  S
Ni409       O411   1.887       .  S
O410       Ni415   1.931   1_655  S
C412        O413   1.269       .  A
C412        C503   1.465       .  S
O417       Ni423   1.931       .  S
O417        C438   1.280       .  A
O418       Ni441   1.911   1_554  S
O418        C427   1.278       .  A
O419       Ni423   1.874       .  S
O419       Ni441   1.877       .  S
O419       Ni435   1.878       .  S
O419        H442   0.967       .  S
C420        O437   1.268       .  A
C420        O429   1.280       .  A
C420        C593   1.484       .  S
O421       Ni440   1.950       .  S
O421        C427   1.282       .  A
O422       Ni440   1.900   1_556  S
O422        C424   1.266       .  A
Ni423       O426   1.907       .  S
Ni423       O428   1.938       .  S
C424        O434   1.289       .  A
C424        C820   1.502   1_556  S
O425       Ni441   1.954       .  S
O425        C431   1.297       .  A
O426        C431   1.280       .  A
C427        C480   1.492       .  S
O428        C430   1.275       .  A
O429       Ni440   1.947   1_556  S
C430        O436   1.265       .  A
C430        C523   1.491       .  S
C431        C570   1.483       .  S
H432        O433   0.966       .  S
O433       Ni441   1.932       .  S
O433       Ni435   1.897       .  S
O433       Ni440   1.891   1_556  S
O434       Ni435   1.982       .  S
Ni435       O439   1.914       .  S
Ni435       O437   1.906       .  S
O436       Ni441   1.907       .  S
C438        O439   1.281       .  A
C438        C470   1.484       .  S
O443       Ni449   1.930       .  S
O443        C464   1.279       .  A
O444       Ni467   1.918       .  S
O444        C453   1.278       .  A
O445       Ni449   1.870       .  S
O445       Ni467   1.881       .  S
O445       Ni461   1.873       .  S
O445        H468   0.967       .  S
C446        O463   1.267       .  A
C446        O455   1.279       .  A
C446        C623   1.478       .  S
O447       Ni466   1.945       .  S
O447        C453   1.280       .  A
O448       Ni466   1.901       .  S
O448        C450   1.266       .  A
Ni449       O452   1.909       .  S
Ni449       O454   1.931       .  S
C450        O460   1.286       .  A
C450        C783   1.497       .  S
O451       Ni467   1.938       .  S
O451        C457   1.293       .  A
O452        C457   1.280       .  A
C453        C473   1.492       .  S
O454        C456   1.273       .  A
O455       Ni466   1.943       .  S
C456        O462   1.268       .  A
C456        C493   1.490       .  S
C457        C533   1.475       .  S
H458        O459   0.965       .  S
O459       Ni467   1.928       .  S
O459       Ni461   1.903       .  S
O459       Ni466   1.891       .  S
O460       Ni461   1.975       .  S
Ni461       O465   1.919       .  S
Ni461       O463   1.901       .  S
O462       Ni467   1.916       .  S
C464        O465   1.280       .  A
C464        C483   1.487       .  S
C469        C470   1.403       .  A
C469        C474   1.405       .  A
C469        H475   1.083       .  S
C470        C471   1.407       .  A
C471        C472   1.398       .  A
C471        H476   1.083       .  S
C472        C473   1.405       .  A
C472        H477   1.083       .  S
C473        C474   1.412       .  A
C474        H478   1.083       .  S
C479        C480   1.404       .  A
C479        C484   1.394       .  A
C479        H485   1.083       .  S
C480        C481   1.413       .  A
C481        C482   1.410       .  A
C481        H486   1.083       .  S
C482        C483   1.406       .  A
C482        H487   1.083       .  S
C483        C484   1.406       .  A
C484        H488   1.083       .  S
C489        C490   1.411       .  A
C489        C494   1.405   1_545  A
C489        H495   1.083       .  S
C490        C491   1.403   1_545  A
C491        C492   1.398       .  A
C491        H496   1.083       .  S
C492        C493   1.410       .  A
C492        H497   1.083       .  S
C493        C494   1.406       .  A
C494        H498   1.083       .  S
C499        C500   1.406       .  A
C499        C504   1.391       .  A
C499        H505   1.083       .  S
C500        C501   1.402       .  A
C501        C502   1.395       .  A
C501        H506   1.083       .  S
C502        C503   1.406       .  A
C502        H507   1.083       .  S
C503        C504   1.399       .  A
C504        H508   1.082       .  S
C509        C510   1.405       .  A
C509        C514   1.394       .  A
C509        H515   1.083       .  S
C510        C511   1.400       .  A
C511        C512   1.392       .  A
C511        H516   1.083       .  S
C512        C513   1.407       .  A
C512        H517   1.083       .  S
C513        C514   1.401       .  A
C514        H518   1.083       .  S
C519        C520   1.402   1_564  A
C519        C524   1.399   1_554  A
C519        H525   1.083       .  S
C520        C521   1.412       .  A
C521        C522   1.403   1_545  A
C521        H526   1.083       .  S
C522        C523   1.403       .  A
C522        H527   1.083       .  S
C523        C524   1.413       .  A
C524        H528   1.083   1_556  S
C529        C530   1.395       .  A
C529        C534   1.396   1_455  A
C529        H535   1.083       .  S
C530        C531   1.416       .  A
C531        C532   1.396   1_455  A
C531        H536   1.083       .  S
C532        C533   1.395       .  A
C532        H537   1.083       .  S
C533        C534   1.415       .  A
C534        H538   1.083       .  S
C539        C540   1.412       .  A
C539        C544   1.403       .  A
C539        H545   1.083       .  S
C540        C541   1.400       .  A
C541        C542   1.401       .  A
C541        H546   1.083       .  S
C542        C543   1.411       .  A
C542        H547   1.084       .  S
C543        C544   1.400       .  A
C544        H548   1.083       .  S
C549        C550   1.403       .  A
C549        C554   1.394       .  A
C549        H555   1.083       .  S
C550        C551   1.411       .  A
C551        C552   1.406       .  A
C551        H556   1.083       .  S
C552        C553   1.405       .  A
C552        H557   1.083       .  S
C553        C554   1.406       .  A
C554        H558   1.083       .  S
C559        C560   1.408       .  A
C559        C564   1.395       .  A
C559        H565   1.083   1_565  S
C560        C561   1.405       .  A
C561        C562   1.406       .  A
C561        H566   1.083       .  S
C562        C563   1.410       .  A
C562        H567   1.083       .  S
C563        C564   1.400       .  A
C564        H568   1.083   1_565  S
C569        C570   1.415       .  A
C569        C574   1.400   1_655  A
C569        H575   1.083       .  S
C570        C571   1.396   1_556  A
C571        C572   1.401   1_655  A
C571        H576   1.083       .  S
C572        C573   1.418   1_554  A
C572        H577   1.083       .  S
C573        C574   1.398       .  A
C574        H578   1.083       .  S
C579        C580   1.400       .  A
C579        C584   1.401       .  A
C579        H585   1.083   1_556  S
C580        C581   1.414       .  A
C581        C582   1.407       .  A
C581        H586   1.083       .  S
C582        C583   1.402       .  A
C582        H587   1.083       .  S
C583        C584   1.411       .  A
C584        H588   1.084   1_556  S
C589        C590   1.401       .  A
C589        C594   1.401       .  A
C589        H595   1.083       .  S
C590        C591   1.411       .  A
C591        C592   1.400       .  A
C591        H596   1.084       .  S
C592        C593   1.401       .  A
C592        H597   1.083       .  S
C593        C594   1.412       .  A
C594        H598   1.083       .  S
C599        C600   1.399       .  A
C599        C604   1.396       .  A
C599        H605   1.083       .  S
C600        C601   1.406       .  A
C601        C602   1.392       .  A
C601        H606   1.083       .  S
C602        C603   1.401       .  A
C602        H607   1.083       .  S
C603        C604   1.411       .  A
C604        H608   1.083       .  S
C609        C610   1.406       .  A
C609        C614   1.393   1_556  A
C609        H615   1.083       .  S
C610        C611   1.400       .  A
C611        C612   1.399   1_556  A
C611        H616   1.083       .  S
C612        C613   1.412       .  A
C612        H617   1.083       .  S
C613        C614   1.401       .  A
C614        H618   1.083       .  S
C619        C620   1.413       .  A
C619        C624   1.400       .  A
C619        H625   1.083       .  S
C620        C621   1.401       .  A
C621        C622   1.400       .  A
C621        H626   1.083       .  S
C622        C623   1.411       .  A
C622        H627   1.084       .  S
C623        C624   1.399       .  A
C624        H628   1.083       .  S
C629        C630   1.402       .  A
C629        C634   1.406       .  A
C629        H635   1.083       .  S
C630        C631   1.411       .  A
C631        C632   1.399       .  A
C631        H636   1.084       .  S
C632        C633   1.400       .  A
C632        H637   1.083       .  S
C633        C634   1.412       .  A
C634        H638   1.083       .  S
C639        C640   1.405       .  A
C639        C644   1.405       .  A
C639        H645   1.083       .  S
C640        C641   1.415       .  A
C641        C642   1.409       .  A
C641        H646   1.083       .  S
C642        C643   1.403       .  A
C642        H647   1.083       .  S
C643        C644   1.411       .  A
C644        H648   1.084       .  S
C649        C650   1.408       .  A
C649        C654   1.395       .  A
C649        H655   1.083       .  S
C650        C651   1.399       .  A
C651        C652   1.393       .  A
C651        H656   1.083       .  S
C652        C653   1.408       .  A
C652        H657   1.083       .  S
C653        C654   1.401       .  A
C654        H658   1.083       .  S
C659        C660   1.400       .  A
C659        C664   1.394       .  A
C659        H665   1.083       .  S
C660        C661   1.410       .  A
C661        C662   1.398       .  A
C661        H666   1.083       .  S
C662        C663   1.400   1_554  A
C662        H667   1.083       .  S
C663        C664   1.407   1_556  A
C664        H668   1.083   1_554  S
C669        C670   1.400       .  A
C669        C674   1.400       .  A
C669        H675   1.083       .  S
C670        C671   1.412       .  A
C671        C672   1.405       .  A
C671        H676   1.083       .  S
C672        C673   1.401       .  A
C672        H677   1.083       .  S
C673        C674   1.411       .  A
C674        H678   1.084       .  S
C679        C680   1.415       .  A
C679        C684   1.411       .  A
C679        H685   1.083       .  S
C680        C681   1.405       .  A
C681        C682   1.404       .  A
C681        H686   1.083       .  S
C682        C683   1.411       .  A
C682        H687   1.084       .  S
C683        C684   1.405       .  A
C684        H688   1.083       .  S
C689        C690   1.402       .  A
C689        C694   1.404       .  A
C689        H695   1.083       .  S
C690        C691   1.418       .  A
C691        C692   1.408       .  A
C691        H696   1.082       .  S
C692        C693   1.400       .  A
C692        H697   1.083       .  S
C693        C694   1.411       .  A
C694        H698   1.081       .  S
C699        C700   1.399       .  A
C699        C704   1.401       .  A
C699        H705   1.083       .  S
C700        C701   1.412       .  A
C701        C702   1.408       .  A
C701        H706   1.083       .  S
C702        C703   1.403       .  A
C702        H707   1.083       .  S
C703        C704   1.411       .  A
C704        H708   1.084       .  S
C709        C710   1.406       .  A
C709        C714   1.408       .  A
C709        H715   1.083       .  S
C710        C711   1.406       .  A
C711        C712   1.397       .  A
C711        H716   1.084       .  S
C712        C713   1.400       .  A
C712        H717   1.083       .  S
C713        C714   1.409       .  A
C714        H718   1.083       .  S
C719        C720   1.407       .  A
C719        C724   1.399       .  A
C719        H725   1.082       .  S
C720        C721   1.402       .  A
C721        C722   1.393       .  A
C721        H726   1.083       .  S
C722        C723   1.406       .  A
C722        H727   1.083       .  S
C723        C724   1.405       .  A
C724        H728   1.083       .  S
C729        C730   1.404       .  A
C729        C734   1.392       .  A
C729        H735   1.083       .  S
C730        C731   1.405       .  A
C731        C732   1.400       .  A
C731        H736   1.083       .  S
C732        C733   1.406   1_554  A
C732        H737   1.083   1_554  S
C733        C734   1.404   1_556  A
C734        H738   1.083       .  S
C739        C740   1.402       .  A
C739        C744   1.402       .  A
C739        H745   1.083       .  S
C740        C741   1.417       .  A
C741        C742   1.406       .  A
C741        H746   1.081       .  S
C742        C743   1.399       .  A
C742        H747   1.083       .  S
C743        C744   1.410       .  A
C744        H748   1.082       .  S
C749        C750   1.412       .  A
C749        C754   1.409       .  A
C749        H755   1.083       .  S
C750        C751   1.400       .  A
C751        C752   1.402       .  A
C751        H756   1.083       .  S
C752        C753   1.411       .  A
C752        H757   1.084       .  S
C753        C754   1.404       .  A
C754        H758   1.083       .  S
C759        C760   1.404       .  A
C759        C764   1.404       .  A
C759        H765   1.083       .  S
C760        C761   1.405       .  A
C761        C762   1.399       .  A
C761        H766   1.084       .  S
C762        C763   1.402       .  A
C762        H767   1.083       .  S
C763        C764   1.406       .  A
C764        H768   1.083       .  S
C769        C770   1.399       .  A
C769        C774   1.403       .  A
C769        H775   1.083       .  S
C770        C771   1.417       .  A
C771        C772   1.408       .  A
C771        H776   1.083       .  S
C772        C773   1.402       .  A
C772        H777   1.083       .  S
C773        C774   1.416       .  A
C774        H778   1.083       .  S
C779        C780   1.416       .  A
C779        C784   1.414       .  A
C779        H785   1.083       .  S
C780        C781   1.397       .  A
C781        C782   1.391       .  A
C781        H786   1.083       .  S
C782        C783   1.413       .  A
C782        H787   1.082       .  S
C783        C784   1.406       .  A
C784        H788   1.083       .  S
C789        C790   1.402       .  A
C789        C794   1.392       .  A
C789        H795   1.083       .  S
C790        C791   1.405       .  A
C791        C792   1.390       .  A
C791        H796   1.083       .  S
C792        C793   1.401       .  A
C792        H797   1.084       .  S
C793        C794   1.403       .  A
C794        H798   1.083       .  S
C799        C800   1.408       .  A
C799        C804   1.391       .  A
C799        H805   1.083       .  S
C800        C801   1.404       .  A
C801        C802   1.397       .  A
C801        H806   1.083       .  S
C802        C803   1.404       .  A
C802        H807   1.083       .  S
C803        C804   1.399       .  A
C804        H808   1.084       .  S
C809        C810   1.401       .  A
C809        C814   1.405       .  A
C809        H815   1.083       .  S
C810        C811   1.416       .  A
C811        C812   1.406       .  A
C811        H816   1.083       .  S
C812        C813   1.401       .  A
C812        H817   1.083       .  S
C813        C814   1.416       .  A
C814        H818   1.083       .  S
C819        C820   1.415       .  A
C819        C824   1.394       .  A
C819        H825   1.083       .  S
C820        C821   1.406       .  A
C821        C822   1.416       .  A
C821        H826   1.083   1_554  S
C822        C823   1.416       .  A
C822        H827   1.083       .  S
C823        C824   1.398       .  A
C824        H828   1.083       .  S
C829        C830   1.409       .  A
C829        C834   1.404       .  A
C829        H835   1.083       .  S
C830        C831   1.401       .  A
C831        C832   1.401       .  A
C831        H836   1.083       .  S
C832        C833   1.409       .  A
C832        H837   1.084       .  S
C833        C834   1.403       .  A
C834        H838   1.083       .  S
C839        C840   1.401       .  A
C839        C844   1.403   1_545  A
C839        H845   1.083       .  S
C840        C841   1.415       .  A
C841        C842   1.406   1_545  A
C841        H846   1.083       .  S
C842        C843   1.402       .  A
C842        H847   1.083       .  S
C843        C844   1.415       .  A
C844        H848   1.083       .  S
C849        C850   1.401       .  A
C849        C854   1.401       .  A
C849        H855   1.083       .  S
C850        C851   1.416       .  A
C851        C852   1.407       .  A
C851        H856   1.083       .  S
C852        C853   1.403       .  A
C852        H857   1.083       .  S
C853        C854   1.415       .  A
C854        H858   1.082       .  S
C859        C860   1.404   1_556  A
C859        C864   1.393       .  A
C859        H865   1.083       .  S
C860        C861   1.405   1_554  A
C861        C862   1.397       .  A
C861        H866   1.083   1_556  S
C862        C863   1.405       .  A
C862        H867   1.083       .  S
C863        C864   1.404       .  A
C864        H868   1.083       .  S
C869        C870   1.404       .  A
C869        C874   1.394       .  A
C869        H875   1.083       .  S
C870        C871   1.403       .  A
C871        C872   1.392       .  A
C871        H876   1.083       .  S
C872        C873   1.403       .  A
C872        H877   1.083       .  S
C873        C874   1.405       .  A
C874        H878   1.083       .  S
C879        C880   1.400       .  A
C879        C884   1.400       .  A
C879        H885   1.083       .  S
C880        C881   1.409       .  A
C881        C882   1.406       .  A
C881        H886   1.083       .  S
C882        C883   1.404       .  A
C882        H887   1.083       .  S
C883        C884   1.408       .  A
C884        H888   1.084       .  S
C889        C890   1.416       .  A
C889        C894   1.405   1_545  A
C889        H895   1.083       .  S
C890        C891   1.400       .  A
C891        C892   1.403   1_545  A
C891        H896   1.083       .  S
C892        C893   1.415       .  A
C892        H897   1.083       .  S
C893        C894   1.401       .  A
C894        H898   1.083       .  S
C899        C900   1.417       .  A
C899        C904   1.403       .  A
C899        H905   1.083       .  S
C900        C901   1.403       .  A
C901        C902   1.409       .  A
C901        H906   1.083       .  S
C902        C903   1.417       .  A
C902        H907   1.083       .  S
C903        C904   1.401       .  A
C904        H908   1.083       .  S
C909        C910   1.403       .  A
C909        C914   1.403       .  A
C909        H915   1.083       .  S
C910        C911   1.414       .  A
C911        C912   1.401       .  A
C911        H916   1.082       .  S
C912        C913   1.401       .  A
C912        H917   1.083       .  S
C913        C914   1.414       .  A
C914        H918   1.082       .  S
C919        C920   1.402       .  A
C919        C924   1.404       .  A
C919        H925   1.083       .  S
C920        C921   1.409       .  A
C921        C922   1.399       .  A
C921        H926   1.084       .  S
C922        C923   1.399       .  A
C922        H927   1.083       .  S
C923        C924   1.410       .  A
C924        H928   1.084       .  S
C929        C930   1.406       .  A
C929        C934   1.398       .  A
C929        H935   1.084       .  S
C930        C931   1.405       .  A
C931        C932   1.409       .  A
C931        H936   1.083       .  S
C932        C933   1.410       .  A
C932        H937   1.083       .  S
C933        C934   1.403       .  A
C934        H938   1.083       .  S
C939        C940   1.399       .  A
C939        C944   1.407   1_655  A
C939        H945   1.083       .  S
C940        C941   1.416       .  A
C941        C942   1.406   1_655  A
C941        H946   1.084       .  S
C942        C943   1.399       .  A
C942        H947   1.083       .  S
C943        C944   1.417       .  A
C944        H948   1.084       .  S
C949        C950   1.402       .  A
C949        C954   1.394       .  A
C949        H955   1.083       .  S
C950        C951   1.413       .  A
C951        C952   1.405       .  A
C951        H956   1.083       .  S
C952        C953   1.402   1_556  A
C952        H957   1.083   1_556  S
C953        C954   1.409   1_554  A
C954        H958   1.084   1_556  S
C959        C960   1.402       .  A
C959        C964   1.396       .  A
C959        H965   1.083       .  S
C960        C961   1.414       .  A
C961        C962   1.406       .  A
C961        H966   1.083       .  S
C962        C963   1.403       .  A
C962        H967   1.083       .  S
C963        C964   1.410       .  A
C964        H968   1.083       .  S
C969        C970   1.403       .  A
C969        C974   1.406       .  A
C969        H975   1.083       .  S
C970        C971   1.415       .  A
C971        C972   1.401       .  A
C971        H976   1.083       .  S
C972        C973   1.402       .  A
C972        H977   1.083       .  S
C973        C974   1.415       .  A
C974        H978   1.083       .  S
C979        C980   1.412       .  A
C979        C984   1.399       .  A
C979        H985   1.084       .  S
C980        C981   1.402       .  A
C981        C982   1.406       .  A
C981        H986   1.083       .  S
C982        C983   1.411       .  A
C982        H987   1.083       .  S
C983        C984   1.399       .  A
C984        H988   1.083       .  S
C989        C990   1.402       .  A
C989        C994   1.398       .  A
C989        H995   1.083       .  S
C990        C991   1.409       .  A
C991        C992   1.409       .  A
C991        H996   1.083       .  S
C992        C993   1.405       .  A
C992        H997   1.083       .  S
C993        C994   1.407       .  A
C994        H998   1.084       .  S
C999       C1000   1.399       .  A
C999       C1004   1.406   1_655  A
C999       H1005   1.083       .  S
C1000      C1001   1.416       .  A
C1001      C1002   1.404   1_655  A
C1001      H1006   1.084       .  S
C1002      C1003   1.398       .  A
C1002      H1007   1.083       .  S
C1003      C1004   1.415       .  A
C1004      H1008   1.084       .  S
