geometry optimzed in LAMMPS
_audit_creation_date              2020-11-30 
_audit_creation_method            'lammps2cif' 
_symmetry_space_group_name_H-M    'P1' 
_symmetry_Int_Tables_number       1 
_symmetry_cell_setting            triclinic 
loop_ 
_symmetry_equiv_pos_as_xyz 
  x,y,z 
_cell_length_a                    51.51172653 
_cell_length_b                    50.38053554486226 
_cell_length_c                    29.682406140846084 
_cell_angle_alpha                 89.97387461890948 
_cell_angle_beta                  90.1536898500622 
_cell_angle_gamma                 121.55281329487599 
loop_ 
_atom_site_label 
_atom_site_type_symbol 
_atom_site_fract_x 
_atom_site_fract_y 
_atom_site_fract_z 
_atom_site_charge 
Zr1        Zr  0.60020882  0.42087581  0.51232389     2.17500
O2          O  0.64790641  0.45068036  0.55391956    -0.51700
O3          O  0.59117964  0.37070211  0.53771891    -0.74900
O4          O  0.59323605  0.42658882  0.59281942    -0.81700
O5          O  0.63077132  0.41321888  0.39885574    -0.83500
O6          O  0.54296030  0.40774965  0.59400598    -0.79100
O7          O  0.64161265  0.41964611  0.47346652    -0.90700
O8          O  0.54380682  0.33257799  0.51531968    -0.76700
O9          O  0.54745396  0.39374322  0.52986886    -0.86200
O10         O  0.57368340  0.38354585  0.45440479    -0.85900
O11         O  0.58753026  0.46081429  0.51477452    -0.72600
O12         O  0.61119795  0.45157706  0.44480069    -0.84700
Zr13       Zr  0.51644273  0.42544516  0.40703146     2.26400
Zr14       Zr  0.53418636  0.43244119  0.53194760     2.06300
Zr15       Zr  0.58394717  0.41326293  0.38769464     2.10000
Zr16       Zr  0.52097387  0.35685787  0.47248830     1.78800
O17         O  0.61457214  0.44977926  0.32848055    -0.93600
O18         O  0.48659494  0.33100952  0.53565233    -0.41400
O19         O  0.53049842  0.38634700  0.40475020    -0.78000
O20         O  0.50562595  0.39449578  0.47433370    -0.96700
O21         O  0.54305305  0.46244215  0.46516497    -0.90000
O22         O  0.56964825  0.45130559  0.38848106    -0.92800
C23         C  0.56955471  0.34202725  0.53485521     1.00900
C24         C  0.64771339  0.41615871  0.43255502     1.13900
C25         C  0.56819019  0.41714817  0.61414962     1.04600
O26         O  0.50450240  0.42651446  0.59940353    -0.95000
O27         O  0.48411407  0.42277944  0.51881964    -0.90700
O28         O  0.48767324  0.44434039  0.45138309    -0.83900
C29         C  0.47824702  0.43900102  0.49276402     1.11300
O30         O  0.64186397  0.52957819  0.48112703    -0.97000
Zr31       Zr  0.59523160  0.48907459  0.44512920     1.88900
O32         O  0.52818954  0.47185474  0.36534231    -0.73600
O33         O  0.55715060  0.48447772  0.56449165    -0.52900
O34         O  0.58735012  0.52614391  0.48609638    -0.97500
O35         O  0.63804744  0.51761318  0.39394706    -0.54800
O36         O  0.57649081  0.50922573  0.38477876    -0.74100
C37         C  0.55196638  0.49923604  0.36107384     0.98200
O38         O  0.46467926  0.39181548  0.37926530    -0.62900
O39         O  0.58845648  0.37424146  0.34632174    -0.57700
O40         O  0.52484441  0.42051237  0.32659440    -0.94400
O41         O  0.54370732  0.38964470  0.33277989    -0.92900
O42         O  0.51652466  0.31724124  0.42066026    -0.93200
O43         O  0.46861189  0.32071862  0.44881437    -0.92000
C44         C  0.53656476  0.40582267  0.30893480     1.17100
H45         H  0.58074368  0.36930909  0.45075643     0.33000
H46         H  0.48393760  0.38280545  0.47963697     0.43900
H47         H  0.57415292  0.46117163  0.35930149     0.37400
H48         H  0.59909032  0.47530528  0.53866136     0.33900
H49         H  0.49997768  0.33710988  0.56250699     0.25700
H50         H  0.54165431  0.49028972  0.56052746     0.31600
H51         H  0.59941629  0.54599569  0.46949998     0.37500
H52         H  0.51560213  0.32496517  0.39037693     0.32000
H53         H  0.56878044  0.35450394  0.35073147     0.30800
H54         H  0.61272325  0.43654879  0.30254291     0.32500
H55         H  0.62938658  0.51001301  0.36352906     0.31500
H56         H  0.46262182  0.33373985  0.43216639     0.35500
H57         H  0.46484999  0.37415934  0.36494449     0.28200
H58         H  0.66257898  0.46614043  0.53218090     0.32500
H59         H  0.65158013  0.51849015  0.49310379     0.35300
H60         H  0.58889189  0.37952894  0.31411502     0.27900
H61         H  0.45227972  0.38279735  0.40678664     0.40800
H62         H  0.50136739  0.44429903  0.59981925     0.30800
H63         H  0.47550618  0.34204873  0.53932703     0.38500
H64         H  0.65117538  0.50896537  0.39933582     0.30300
H65         H  0.55791038  0.48159552  0.59736885     0.30400
H66         H  0.65497573  0.43603019  0.55901197     0.30600
Zr67       Zr  0.60662280  0.42505496  0.02263152     2.17500
O68         O  0.65426077  0.45990967  0.06178397    -0.51700
O69         O  0.59829496  0.37498881  0.04959632    -0.74900
O70         O  0.59479442  0.42515746  0.10313493    -0.81700
O71         O  0.64245667  0.41951151  0.91279612    -0.83500
O72         O  0.55530681  0.43324951  0.10684935    -0.79100
O73         O  0.65009359  0.42432631  0.98849426    -0.90700
O74         O  0.55275364  0.33611447  0.02279314    -0.76700
O75         O  0.55302618  0.39504855  0.03442073    -0.86200
O76         O  0.58486420  0.38896898  0.96223246    -0.85900
O77         O  0.59007276  0.46219379  0.02128345    -0.72600
O78         O  0.61887186  0.45725339  0.95618825    -0.84700
Zr79       Zr  0.52482696  0.42570350  0.90684439     2.26400
Zr80       Zr  0.53612850  0.43093514  0.03285549     2.06300
Zr81       Zr  0.59662983  0.42006490  0.89668935     2.10000
Zr82       Zr  0.53148543  0.35915653  0.97401164     1.78800
O83         O  0.63978229  0.45722002  0.85113340    -0.93600
O84         O  0.49161436  0.32992763  0.02945375    -0.41400
O85         O  0.54250142  0.38965842  0.90680605    -0.78000
O86         O  0.51248346  0.39369262  0.97312454    -0.96700
O87         O  0.54690228  0.46200699  0.96691600    -0.90000
O88         O  0.57856465  0.45509013  0.89403062    -0.92800
C89         C  0.57744066  0.34596692  0.04551744     1.00900
C90         C  0.65764040  0.42128687  0.94812437     1.13900
C91         C  0.57524258  0.42886341  0.12488083     1.04600
O92         O  0.49726810  0.39900840  0.08819140    -0.95000
O93         O  0.48672100  0.42145863  0.01488444    -0.90700
O94         O  0.49386672  0.44370758  0.94709296    -0.83900
C95         C  0.48264997  0.43830859  0.98744645     1.11300
O96         O  0.64403146  0.53506038  0.98977268    -0.97000
Zr97       Zr  0.59972124  0.49212068  0.95242268     1.88900
O98         O  0.53499744  0.47156912  0.86571174    -0.73600
O99         O  0.53986537  0.47793464  0.06251496    -0.52900
O100        O  0.59031435  0.52748650  0.99515278    -0.97500
O101        O  0.64370265  0.52109651  0.90333617    -0.54800
O102        O  0.57995235  0.51178668  0.89171590    -0.74100
C103        C  0.55647842  0.50032286  0.86505527     0.98200
O104        O  0.47427324  0.39089273  0.87562629    -0.62900
O105        O  0.58944891  0.37379533  0.85876662    -0.57700
O106        O  0.53244440  0.41797505  0.82707043    -0.94400
O107        O  0.57674375  0.41803166  0.82340662    -0.92900
O108        O  0.53680118  0.32452272  0.92283887    -0.93200
O109        O  0.48342175  0.31941398  0.94059750    -0.92000
C110        C  0.55386625  0.41735814  0.80547060     1.17100
H111        H  0.59315681  0.37569819  0.96001358     0.33000
H112        H  0.49063231  0.38121858  0.97654035     0.43900
H113        H  0.58368542  0.46560828  0.86531385     0.37400
H114        H  0.59934070  0.47640626  0.04628398     0.33900
H115        H  0.50250585  0.33037842  0.05724992     0.25700
H116        H  0.56151493  0.49168889  0.07109502     0.31600
H117        H  0.59599221  0.54513422  0.97452048     0.37500
H118        H  0.53700305  0.30872186  0.94241835     0.32000
H119        H  0.56775280  0.36201278  0.84957871     0.30800
H120        H  0.63857062  0.44561754  0.82349684     0.32500
H121        H  0.63686991  0.51089462  0.87353826     0.31500
H122        H  0.47756508  0.33113211  0.92049739     0.35500
H123        H  0.46229040  0.37731927  0.90108192     0.28200
H124        H  0.65574379  0.44687913  0.08541416     0.32500
H125        H  0.64380065  0.52744184  0.02060743     0.35300
H126        H  0.60075816  0.38156026  0.83010789     0.27900
H127        H  0.46584257  0.40435741  0.87043547     0.40800
H128        H  0.49476698  0.41387716  0.10668857     0.30800
H129        H  0.48340661  0.34335165  0.03651081     0.38500
H130        H  0.65856677  0.51558407  0.91377731     0.30300
H131        H  0.52879314  0.47153778  0.09151795     0.30400
H132        H  0.65049164  0.47460239  0.07840756     0.30600
Zr133      Zr  0.40283853  0.58245916  0.26521460     2.17500
O134        O  0.35730811  0.54846872  0.30906943    -0.51700
O135        O  0.40819930  0.63179473  0.28889983    -0.74900
O136        O  0.41649757  0.58413688  0.34529026    -0.81700
O137        O  0.36307546  0.58067007  0.15423075    -0.83500
O138        O  0.46283059  0.58875583  0.34861298    -0.79100
O139        O  0.35680138  0.57751744  0.23012038    -0.90700
O140        O  0.45356254  0.67133565  0.26244453    -0.76700
O141        O  0.45652621  0.61472043  0.27540016    -0.86200
O142        O  0.42231722  0.61693402  0.20271888    -0.85900
O143        O  0.42155746  0.54719254  0.26679306    -0.72600
O144        O  0.39034638  0.54889949  0.20042447    -0.84700
Zr145      Zr  0.48473121  0.58178362  0.15135891     2.26400
Zr146      Zr  0.47560299  0.58057549  0.27598075     2.06300
Zr147      Zr  0.41103372  0.58427750  0.13881163     2.10000
Zr148      Zr  0.47567812  0.64904404  0.21327128     1.78800
O149        O  0.37132970  0.54139280  0.09469461    -0.93600
O150        O  0.51677828  0.68194289  0.26547046    -0.41400
O151        O  0.46515162  0.61637587  0.14846743    -0.78000
O152        O  0.49709637  0.61643196  0.21468007    -0.96700
O153        O  0.46397542  0.54695929  0.21308174    -0.90000
O154        O  0.43088877  0.55113558  0.13988408    -0.92800
C155        C  0.42866819  0.66090778  0.28479709     1.00900
C156        C  0.34768098  0.57806286  0.18959564     1.13900
C157        C  0.44007980  0.58790830  0.36659274     1.04600
O158        O  0.51694299  0.60777893  0.33012147    -0.95000
O159        O  0.52461152  0.59052063  0.25464126    -0.90700
O160        O  0.51400680  0.56219043  0.19276350    -0.83900
C161        C  0.52619515  0.56995951  0.23240176     1.11300
O162        O  0.36726220  0.47706579  0.24341893    -0.97000
Zr163      Zr  0.41092342  0.51542928  0.19983183     1.88900
O164        O  0.47341916  0.53531321  0.11056180    -0.73600
O165        O  0.46727895  0.53289282  0.31071295    -0.52900
O166        O  0.42148885  0.48027005  0.24088074    -0.97500
O167        O  0.36637771  0.48338672  0.15259898    -0.54800
O168        O  0.42925670  0.49524704  0.13848799    -0.74100
C169        C  0.45182490  0.50653556  0.11044626     0.98200
O170        O  0.53650735  0.61708598  0.12513617    -0.62900
O171        O  0.41074367  0.62542816  0.09603274    -0.57700
O172        O  0.47794649  0.58868208  0.07128943    -0.94400
O173        O  0.43333564  0.58808175  0.06668851    -0.92900
O174        O  0.46577249  0.68027393  0.16150499    -0.93200
O175        O  0.52105343  0.68933520  0.17485920    -0.92000
C176        C  0.45648767  0.58906350  0.04936429     1.17100
H177        H  0.41294539  0.62918866  0.19973637     0.33000
H178        H  0.51893772  0.62978728  0.21740729     0.43900
H179        H  0.42545811  0.54007560  0.11167973     0.37400
H180        H  0.41315019  0.53371579  0.29270028     0.33900
H181        H  0.50877213  0.67280355  0.29548626     0.25700
H182        H  0.48714799  0.53889301  0.32450459     0.31600
H183        H  0.41090570  0.46059686  0.22347557     0.37500
H184        H  0.47352467  0.70040265  0.17719566     0.32000
H185        H  0.39952237  0.61521361  0.06793781     0.30800
H186        H  0.37355585  0.54977098  0.06383685     0.32500
H187        H  0.36187106  0.46185792  0.15648869     0.31500
H188        H  0.52936196  0.67791636  0.15953879     0.35500
H189        H  0.53757714  0.63706386  0.12010602     0.28200
H190        H  0.35620981  0.56230262  0.33166812     0.32500
H191        H  0.35476467  0.48654491  0.24769382     0.35300
H192        H  0.43211030  0.63945499  0.08636530     0.27900
H193        H  0.54948004  0.62094135  0.15198096     0.40800
H194        H  0.52522395  0.63014904  0.32412110     0.30800
H195        H  0.53290306  0.67728062  0.25963927     0.38500
H196        H  0.37387360  0.48885312  0.12126973     0.30300
H197        H  0.45380546  0.52926924  0.33670308     0.30400
H198        H  0.36233514  0.53502890  0.32666506     0.30600
Zr199      Zr  0.39663859  0.58257920  0.76691663     2.17500
O200        O  0.35042128  0.54987304  0.81011508    -0.51700
O201        O  0.40425254  0.63219778  0.79217623    -0.74900
O202        O  0.40777245  0.58179409  0.84676551    -0.81700
O203        O  0.36010633  0.58284939  0.65536268    -0.83500
O204        O  0.45852968  0.60842403  0.84089988    -0.79100
O205        O  0.35337061  0.58230125  0.73081829    -0.90700
O206        O  0.44963634  0.67065741  0.76429430    -0.76700
O207        O  0.45028661  0.61442623  0.77855955    -0.86200
O208        O  0.41843976  0.61679316  0.70431074    -0.85900
O209        O  0.41393235  0.54619480  0.77343593    -0.72600
O210        O  0.38436540  0.54769658  0.70397982    -0.84700
Zr211      Zr  0.47930570  0.57891380  0.66044029     2.26400
Zr212      Zr  0.46780950  0.57934811  0.78583843     2.06300
Zr213      Zr  0.40664116  0.58283587  0.64225655     2.10000
Zr214      Zr  0.47194695  0.64786098  0.71637216     1.78800
O215        O  0.36501324  0.54286143  0.59703442    -0.93600
O216        O  0.51233990  0.68267961  0.76827939    -0.41400
O217        O  0.46076406  0.61413168  0.65287978    -0.78000
O218        O  0.49175732  0.61387545  0.72345196    -0.96700
O219        O  0.45736142  0.54540174  0.72331278    -0.90000
O220        O  0.42565204  0.54904543  0.64758134    -0.92800
C221        C  0.42512625  0.66101321  0.78742581     1.00900
C222        C  0.34535206  0.58318015  0.68987102     1.13900
C223        C  0.43442579  0.59606626  0.86459558     1.04600
O224        O  0.50510753  0.59658967  0.84663363    -0.95000
O225        O  0.51605029  0.58483595  0.76853743    -0.90700
O226        O  0.50800114  0.55932675  0.70349763    -0.83900
C227        C  0.51928499  0.56605313  0.74386236     1.11300
O228        O  0.36142042  0.47481638  0.75135422    -0.97000
Zr229      Zr  0.40469783  0.51382984  0.70761845     1.88900
O230        O  0.46814508  0.53253653  0.61992773    -0.73600
O231        O  0.45042953  0.53391116  0.83392736    -0.52900
O232        O  0.41898664  0.48154713  0.74882107    -0.97500
O233        O  0.36029898  0.47987307  0.66131783    -0.54800
O234        O  0.42269616  0.49324490  0.64606662    -0.74100
C235        C  0.44577484  0.50417572  0.61892040     0.98200
O236        O  0.53125315  0.61405194  0.63480166    -0.62900
O237        O  0.41328058  0.62665927  0.59788919    -0.57700
O238        O  0.47216280  0.58319096  0.57928461    -0.94400
O239        O  0.42677366  0.58068927  0.57100747    -0.92900
O240        O  0.46782128  0.68337145  0.66538166    -0.93200
O241        O  0.51920704  0.68161114  0.67590110    -0.92000
C242        C  0.45027463  0.58148007  0.55553457     1.17100
H243        H  0.40986275  0.62969923  0.70017859     0.33000
H244        H  0.51357158  0.62641489  0.72755283     0.43900
H245        H  0.42034893  0.53750884  0.61988236     0.37400
H246        H  0.40436540  0.53309163  0.79937626     0.33900
H247        H  0.50939585  0.70039108  0.77300308     0.25700
H248        H  0.46838994  0.53177093  0.83717181     0.31600
H249        H  0.40880488  0.46146524  0.73239850     0.37500
H250        H  0.47268499  0.70162916  0.68423727     0.32000
H251        H  0.43528067  0.63895278  0.59067824     0.30800
H252        H  0.36148844  0.55450501  0.57338451     0.32500
H253        H  0.36631376  0.48816991  0.63036488     0.31500
H254        H  0.53398503  0.67641937  0.68784788     0.35500
H255        H  0.53586159  0.60089173  0.61578844     0.28200
H256        H  0.33510895  0.53563252  0.78781359     0.32500
H257        H  0.36894980  0.47738482  0.78273073     0.35300
H258        H  0.40314565  0.61749052  0.56873327     0.27900
H259        H  0.52967750  0.62818864  0.61331116     0.40800
H260        H  0.51753006  0.61954918  0.84357282     0.30800
H261        H  0.50673472  0.67147122  0.79740996     0.38500
H262        H  0.34486388  0.48501003  0.66989131     0.30300
H263        H  0.44793354  0.54073472  0.86402130     0.30400
H264        H  0.34342468  0.56397999  0.81945969     0.30600
Zr265      Zr  0.10420128  0.58799691  0.19993544     2.17500
O266        O  0.08685840  0.62160751  0.22752455    -0.51700
O267        O  0.06900766  0.54211203  0.24209257    -0.74900
O268        O  0.05454399  0.56839802  0.15957735    -0.81700
O269        O  0.16300278  0.59593321  0.28633013    -0.83500
O270        O  0.06760474  0.58795037  0.08935422    -0.79100
O271        O  0.11817154  0.59477007  0.28021612    -0.90700
O272        O  0.07349271  0.50222569  0.21709000    -0.76700
O273        O  0.08990501  0.55246800  0.13919310    -0.86200
O274        O  0.12813535  0.55901049  0.21278815    -0.85900
O275        O  0.12562432  0.62126487  0.13520928    -0.72600
O276        O  0.15884301  0.62419300  0.20366532    -0.84700
Zr277      Zr  0.18781319  0.58991766  0.08735332     2.26400
Zr278      Zr  0.11175486  0.58506705  0.07485989     2.06300
Zr279      Zr  0.18181991  0.59365689  0.21364513     2.10000
Zr280      Zr  0.11193479  0.52229406  0.15454011     1.78800
O281        O  0.22306914  0.63896220  0.25188260    -0.93600
O282        O  0.06538764  0.48356570  0.11628966    -0.41400
O283        O  0.16661591  0.55729395  0.15312628    -0.78000
O284        O  0.13311823  0.55322355  0.08659286    -0.96700
O285        O  0.16538718  0.62052195  0.07607638    -0.90000
O286        O  0.20314419  0.62549418  0.14880995    -0.92800
C287        C  0.06213889  0.51371584  0.24425828     1.00900
C288        C  0.14012901  0.59588029  0.30293979     1.13900
C289        C  0.04758558  0.57273574  0.11930444     1.04600
O290        O  0.06974113  0.54140818  0.03491278    -0.95000
O291        O  0.12856621  0.58275204  0.00126007    -0.90700
O292        O  0.17624788  0.59072885  0.00679941    -0.83900
C293        C  0.15324254  0.58731188  0.98425286     1.11300
O294        O  0.16728145  0.69262985  0.16565576    -0.97000
Zr295      Zr  0.18026589  0.65555347  0.13771212     1.88900
O296        O  0.23014885  0.63985697  0.05913656    -0.73600
O297        O  0.11109443  0.62507142  0.02952470    -0.52900
O298        O  0.18017068  0.69347412  0.08688721    -0.97500
O299        O  0.21755338  0.68727893  0.19534836    -0.54800
O300        O  0.22518150  0.67844047  0.08932557    -0.74100
C301        C  0.23890999  0.66880847  0.06422788     0.98200
O302        O  0.19891211  0.55491349  0.04682978    -0.62900
O303        O  0.18454395  0.55662342  0.26332927    -0.57700
O304        O  0.23002651  0.58675529  0.12243866    -0.94400
O305        O  0.22530847  0.58881696  0.19800619    -0.92900
O306        O  0.12860919  0.49519742  0.20352296    -0.93200
O307        O  0.11536731  0.48217418  0.11419335    -0.92000
C308        C  0.23899062  0.58689534  0.16335502     1.17100
H309        H  0.12255582  0.54828509  0.24119226     0.33000
H310        H  0.12795470  0.53929391  0.06123643     0.43900
H311        H  0.22505506  0.63828207  0.15128779     0.37400
H312        H  0.11618269  0.63337746  0.13112012     0.33900
H313        H  0.04939221  0.48703318  0.12789678     0.25700
H314        H  0.13203430  0.63796387  0.01755401     0.31600
H315        H  0.17888987  0.68504793  0.05629653     0.37500
H316        H  0.11998374  0.49475718  0.23347490     0.32000
H317        H  0.19493532  0.56859602  0.29089838     0.30800
H318        H  0.22613384  0.63072604  0.28038454     0.32500
H319        H  0.22564252  0.70904738  0.18573953     0.31500
H320        H  0.13321158  0.49383442  0.09418257     0.35500
H321        H  0.17867211  0.53659792  0.03930141     0.28200
H322        H  0.10390926  0.63740435  0.24625942     0.32500
H323        H  0.14750712  0.67974286  0.18112852     0.35300
H324        H  0.16331701  0.54195621  0.27295566     0.27900
H325        H  0.20758310  0.56507331  0.01753562     0.40800
H326        H  0.06416616  0.55107880  0.01071139     0.30800
H327        H  0.06824440  0.49064040  0.08457563     0.38500
H328        H  0.23478641  0.68414112  0.19089316     0.30300
H329        H  0.09842087  0.61390698  0.00289857     0.30400
H330        H  0.07062179  0.60852616  0.24939129     0.30600
Zr331      Zr  0.09974839  0.58952856  0.70050825     2.17500
O332        O  0.08009492  0.62096134  0.72879668    -0.51700
O333        O  0.06537983  0.54339878  0.74366759    -0.74900
O334        O  0.05122204  0.56785522  0.65521751    -0.81700
O335        O  0.16562372  0.62273202  0.77540400    -0.83500
O336        O  0.06903079  0.59587495  0.59244790    -0.79100
O337        O  0.11453958  0.59447810  0.78019506    -0.90700
O338        O  0.07363604  0.50557910  0.72006410    -0.76700
O339        O  0.08768158  0.55413347  0.64016680    -0.86200
O340        O  0.12626985  0.56294228  0.71616105    -0.85900
O341        O  0.12105851  0.62314016  0.63570988    -0.72600
O342        O  0.15412862  0.62720995  0.70377663    -0.84700
Zr343      Zr  0.18599828  0.59449355  0.59149698     2.26400
Zr344      Zr  0.10920708  0.58652653  0.57518342     2.06300
Zr345      Zr  0.17997528  0.59968980  0.71724340     2.10000
Zr346      Zr  0.11174861  0.52617463  0.65775354     1.78800
O347        O  0.22418570  0.63884523  0.75955417    -0.93600
O348        O  0.06627796  0.48958603  0.61542268    -0.41400
O349        O  0.16613812  0.56257034  0.65797987    -0.78000
O350        O  0.13207100  0.55619192  0.58913462    -0.96700
O351        O  0.16247692  0.62368987  0.57863393    -0.90000
O352        O  0.20047989  0.63094293  0.65167974    -0.92800
C353        C  0.06056834  0.51571917  0.74623647     1.00900
C354        C  0.14122435  0.60798971  0.79827132     1.13900
C355        C  0.04675381  0.57549147  0.61545264     1.04600
O356        O  0.07783826  0.53558465  0.53999784    -0.95000
O357        O  0.14434133  0.61403991  0.51502697    -0.90700
O358        O  0.17167872  0.59106892  0.51217588    -0.83900
C359        C  0.15818600  0.60346518  0.49301645     1.11300
O360        O  0.16679939  0.69864328  0.66829782    -0.97000
Zr361      Zr  0.17564897  0.65899084  0.63870048     1.88900
O362        O  0.22734861  0.64414063  0.56352603    -0.73600
O363        O  0.08538768  0.59094391  0.50659129    -0.52900
O364        O  0.16758260  0.68876404  0.58172796    -0.97500
O365        O  0.21245108  0.69366872  0.69486353    -0.54800
O366        O  0.22103893  0.68219399  0.59099255    -0.74100
C367        C  0.23549215  0.67284183  0.56679307     0.98200
O368        O  0.19963606  0.56428843  0.54375791    -0.62900
O369        O  0.17750390  0.56442974  0.77591607    -0.57700
O370        O  0.22760647  0.59120033  0.62568000    -0.94400
O371        O  0.22409010  0.59520950  0.70121049    -0.92900
O372        O  0.12331781  0.49432984  0.70547358    -0.93200
O373        O  0.12092165  0.48902296  0.61968399    -0.92000
C374        C  0.23679823  0.59183065  0.66629794     1.17100
H375        H  0.12058153  0.55266771  0.74496047     0.33000
H376        H  0.12817461  0.54221567  0.56426735     0.43900
H377        H  0.22232094  0.64447771  0.65421406     0.37400
H378        H  0.11178547  0.63543132  0.63202300     0.33900
H379        H  0.06085510  0.46878157  0.62657273     0.25700
H380        H  0.06316291  0.57647914  0.51022596     0.31600
H381        H  0.14640696  0.67466553  0.57115453     0.37500
H382        H  0.12610204  0.50332817  0.73602189     0.32000
H383        H  0.18927015  0.57830950  0.80134080     0.30800
H384        H  0.23965503  0.65152356  0.73652720     0.32500
H385        H  0.23227698  0.69716015  0.68463413     0.31500
H386        H  0.13690158  0.50153641  0.59718652     0.35500
H387        H  0.22100939  0.57905957  0.53478809     0.28200
H388        H  0.06046326  0.60569240  0.74303200     0.32500
H389        H  0.15334862  0.68864897  0.69460347     0.35300
H390        H  0.15631306  0.55265075  0.78699472     0.27900
H391        H  0.20060715  0.54922107  0.56402766     0.40800
H392        H  0.08722758  0.53750183  0.51016815     0.30800
H393        H  0.05004145  0.49254849  0.62733446     0.38500
H394        H  0.20766473  0.68079146  0.72234464     0.30300
H395        H  0.08838810  0.61201757  0.50770619     0.30400
H396        H  0.07423689  0.62784334  0.70139720     0.30600
Zr397      Zr  0.90142743  0.42663997  0.44582386     2.17500
O398        O  0.91479457  0.39030878  0.47588165    -0.51700
O399        O  0.93922928  0.47204504  0.48459252    -0.74900
O400        O  0.95170607  0.44481821  0.40567838    -0.81700
O401        O  0.83936794  0.41581833  0.53155975    -0.83500
O402        O  0.94412679  0.44573712  0.33026388    -0.79100
O403        O  0.88624795  0.42141634  0.52634459    -0.90700
O404        O  0.93545551  0.51250315  0.46072890    -0.76700
O405        O  0.91450525  0.46164809  0.38506631    -0.86200
O406        O  0.87756089  0.45578413  0.45949379    -0.85900
O407        O  0.88072157  0.39382847  0.38070100    -0.72600
O408        O  0.84694317  0.39115370  0.44987517    -0.84700
Zr409      Zr  0.81663235  0.42271456  0.33287724     2.26400
Zr410      Zr  0.89250048  0.42976126  0.32013813     2.06300
Zr411      Zr  0.82344672  0.42134276  0.45869730     2.10000
Zr412      Zr  0.89342187  0.49227874  0.40103767     1.78800
O413        O  0.78088102  0.37986322  0.50047843    -0.93600
O414        O  0.93783456  0.52959524  0.35763757    -0.41400
O415        O  0.83834887  0.45699632  0.39772001    -0.78000
O416        O  0.87097265  0.46101848  0.33286354    -0.96700
O417        O  0.83951061  0.39271292  0.32248284    -0.90000
O418        O  0.80248122  0.38800534  0.39510203    -0.92800
C419        C  0.94785680  0.50073999  0.48594383     1.00900
C420        C  0.86311625  0.41798423  0.54879772     1.13900
C421        C  0.96127211  0.45047946  0.36398609     1.04600
O422        O  0.92229825  0.47330021  0.26925763    -0.95000
O423        O  0.86896478  0.41858664  0.24786664    -0.90700
O424        O  0.82520643  0.41915088  0.25232628    -0.83900
C425        C  0.84529323  0.41644241  0.23057253     1.11300
O426        O  0.83387076  0.32046644  0.42276847    -0.97000
Zr427      Zr  0.82632369  0.35880663  0.38494675     1.88900
O428        O  0.77538522  0.37226365  0.30351117    -0.73600
O429        O  0.90470299  0.39445801  0.28305091    -0.52900
O430        O  0.83624959  0.32537739  0.33831548    -0.97500
O431        O  0.78656356  0.32414631  0.43734884    -0.54800
O432        O  0.78345442  0.33552825  0.33267117    -0.74100
C433        C  0.76903267  0.34392913  0.30672357     0.98200
O434        O  0.80733545  0.45717263  0.28734119    -0.62900
O435        O  0.82485219  0.46271607  0.50325884    -0.57700
O436        O  0.77257639  0.42218218  0.36573790    -0.94400
O437        O  0.77745204  0.42171008  0.44170728    -0.92900
O438        O  0.88088979  0.52169514  0.45224328    -0.93200
O439        O  0.88705700  0.53117601  0.36237619    -0.92000
C440        C  0.76339311  0.42206342  0.40618568     1.17100
H441        H  0.88391562  0.46663246  0.48790305     0.33000
H442        H  0.87552543  0.47484262  0.30755884     0.43900
H443        H  0.78063055  0.37454930  0.39764468     0.37400
H444        H  0.89073354  0.38230055  0.37630419     0.33900
H445        H  0.95324253  0.54298349  0.38043600     0.25700
H446        H  0.88567273  0.37885890  0.26763181     0.31600
H447        H  0.85417502  0.33981076  0.32000045     0.37500
H448        H  0.85943017  0.51472017  0.44524958     0.32000
H449        H  0.81345246  0.45220844  0.53099199     0.30800
H450        H  0.77648883  0.39067740  0.52435699     0.32500
H451        H  0.76717554  0.31869522  0.42243601     0.31500
H452        H  0.86753327  0.51890974  0.34585224     0.35500
H453        H  0.78545871  0.44458218  0.27925121     0.28200
H454        H  0.91954033  0.39597442  0.50806508     0.32500
H455        H  0.84790991  0.33204329  0.44800705     0.35300
H456        H  0.84617707  0.47596121  0.51363715     0.27900
H457        H  0.80890930  0.47303287  0.30871848     0.40800
H458        H  0.93268878  0.46617669  0.24897691     0.30800
H459        H  0.94585631  0.51730542  0.34429859     0.38500
H460        H  0.78843702  0.33758680  0.46297832     0.30300
H461        H  0.91859061  0.40683157  0.25818776     0.30400
H462        H  0.93469817  0.39664163  0.46212149     0.30600
Zr463      Zr  0.90626151  0.42422328  0.95323960     2.17500
O464        O  0.92396722  0.39004919  0.97692452    -0.51700
O465        O  0.93950727  0.46893471  0.99981850    -0.74900
O466        O  0.95669665  0.44856247  0.91312354    -0.81700
O467        O  0.83834575  0.38168294  0.02133992    -0.83500
O468        O  0.94000047  0.42676120  0.84580655    -0.79100
O469        O  0.88875726  0.41277708  0.03140948    -0.90700
O470        O  0.92984303  0.50672911  0.98216290    -0.76700
O471        O  0.91820655  0.46404982  0.89962182    -0.86200
O472        O  0.87640694  0.44655082  0.97330373    -0.85900
O473        O  0.88868952  0.39600419  0.88333010    -0.72600
O474        O  0.85268972  0.38388437  0.94989779    -0.84700
Zr475      Zr  0.81993632  0.41963206  0.84249682     2.26400
Zr476      Zr  0.90045958  0.43680448  0.82988064     2.06300
Zr477      Zr  0.82349742  0.40710165  0.96765173     2.10000
Zr478      Zr  0.88995214  0.48693539  0.92132131     1.78800
O479        O  0.77572946  0.36171882  0.99237236    -0.93600
O480        O  0.93191046  0.53388526  0.88745928    -0.41400
O481        O  0.83668629  0.44718317  0.91360201    -0.78000
O482        O  0.87301471  0.46171543  0.84787644    -0.96700
O483        O  0.84825694  0.39599167  0.82496581    -0.90000
O484        O  0.80657895  0.38025159  0.89764985    -0.92800
C485        C  0.94370942  0.49610132  0.00590924     1.00900
C486        C  0.86146420  0.39682006  0.04683159     1.13900
C487        C  0.96190710  0.44432979  0.87186994     1.04600
O488        O  0.93184421  0.49111896  0.80728396    -0.95000
O489        O  0.87490286  0.42104232  0.75869319    -0.90700
O490        O  0.83314747  0.42517269  0.76217297    -0.83900
C491        C  0.85315145  0.42231152  0.74044203     1.11300
O492        O  0.84822117  0.31907264  0.90384014    -0.97000
Zr493      Zr  0.83531599  0.35701365  0.87985304     1.88900
O494        O  0.77982076  0.36955182  0.80943089    -0.73600
O495        O  0.93429747  0.43987546  0.76979774    -0.52900
O496        O  0.85093295  0.33620722  0.81872822    -0.97500
O497        O  0.79714730  0.31442218  0.92605516    -0.54800
O498        O  0.79093877  0.33355277  0.83053539    -0.74100
C499        C  0.77454108  0.34148729  0.80873701     0.98200
O500        O  0.80512696  0.45139942  0.80093091    -0.62900
O501        O  0.82271102  0.43205146  0.03740959    -0.57700
O502        O  0.77687305  0.41868600  0.87964264    -0.94400
O503        O  0.78333967  0.41822924  0.95535828    -0.92900
O504        O  0.87227336  0.50615923  0.98185639    -0.93200
O505        O  0.87539985  0.52289925  0.89368925    -0.92000
C506        C  0.76923159  0.41973567  0.92066864     1.17100
H507        H  0.88075230  0.45502802  0.00342344     0.33000
H508        H  0.87676927  0.47717743  0.82536370     0.43900
H509        H  0.78490750  0.36537732  0.89835318     0.37400
H510        H  0.89886867  0.38474391  0.87809570     0.33900
H511        H  0.94962196  0.53128221  0.88941505     0.25700
H512        H  0.92466731  0.41858041  0.75712345     0.31600
H513        H  0.85209420  0.34843372  0.79186050     0.37500
H514        H  0.85027713  0.49691451  0.97584345     0.32000
H515        H  0.82893417  0.45355895  0.02889561     0.30800
H516        H  0.76542398  0.37013696  0.01024222     0.32500
H517        H  0.77849859  0.31534324  0.92291434     0.31500
H518        H  0.85491963  0.50931767  0.88033873     0.35500
H519        H  0.78292995  0.43769523  0.79572299     0.28200
H520        H  0.93586629  0.39977033  0.00471994     0.32500
H521        H  0.85949414  0.32754468  0.93248753     0.35300
H522        H  0.80095381  0.42193785  0.04560448     0.27900
H523        H  0.80713884  0.46720791  0.82280512     0.40800
H524        H  0.95258779  0.49761627  0.81789465     0.30800
H525        H  0.92701006  0.53219813  0.85493149     0.38500
H526        H  0.80389517  0.32100249  0.95751440     0.30300
H527        H  0.93286322  0.45252515  0.74549505     0.30400
H528        H  0.93936009  0.39315672  0.95422171     0.30600
Zr529      Zr  0.58857603  0.10365066  0.07018122     2.17500
O530        O  0.62134125  0.08596642  0.04190686    -0.51700
O531        O  0.54413154  0.06657565  0.02870721    -0.74900
O532        O  0.56889395  0.05377629  0.11449907    -0.81700
O533        O  0.59974898  0.16569648  0.98324403    -0.83500
O534        O  0.59283187  0.07077921  0.18065299    -0.79100
O535        O  0.59696300  0.11902776  0.98964754    -0.90700
O536        O  0.50462431  0.07038178  0.05315747    -0.76700
O537        O  0.55319725  0.08953202  0.12981257    -0.86200
O538        O  0.56022627  0.12808568  0.05486026    -0.85900
O539        O  0.61974004  0.12436950  0.13673878    -0.72600
O540        O  0.62351912  0.15946542  0.06722426    -0.84700
Zr541      Zr  0.59014885  0.19002431  0.18149072     2.26400
Zr542      Zr  0.58321672  0.11156605  0.19616608     2.06300
Zr543      Zr  0.59410027  0.18331288  0.05540817     2.10000
Zr544      Zr  0.52395300  0.11197763  0.11274832     1.78800
O545        O  0.63713213  0.22580576  0.01571947    -0.93600
O546        O  0.48718249  0.06468151  0.15249904    -0.41400
O547        O  0.55842116  0.16795556  0.11521847    -0.78000
O548        O  0.55291161  0.13418107  0.18204544    -0.96700
O549        O  0.61896372  0.16617400  0.19345969    -0.90000
O550        O  0.62515976  0.20444430  0.12056865    -0.92800
C551        C  0.51604909  0.05808809  0.02759677     1.00900
C552        C  0.59980962  0.14229189  0.96672810     1.13900
C553        C  0.57479930  0.04844839  0.15500587     1.04600
O554        O  0.53345043  0.07871819  0.23087082    -0.95000
O555        O  0.61165086  0.14961719  0.25315612    -0.90700
O556        O  0.58627650  0.17392402  0.26085873    -0.83900
C557        C  0.59902504  0.16008056  0.27804214     1.11300
O558        O  0.68892639  0.16596271  0.10453445    -0.97000
Zr559      Zr  0.65367129  0.18015272  0.13379583     1.88900
O560        O  0.63959930  0.23342202  0.21003516    -0.73600
O561        O  0.58750432  0.08876727  0.26636787    -0.52900
O562        O  0.68132716  0.17507595  0.19657827    -0.97500
O563        O  0.69223654  0.21869409  0.08338489    -0.54800
O564        O  0.67633265  0.22741952  0.17881669    -0.74100
C565        C  0.66782129  0.24209414  0.20431828     0.98200
O566        O  0.55737138  0.20391961  0.22054637    -0.62900
O567        O  0.55602903  0.18452967  0.00797088    -0.57700
O568        O  0.58666785  0.23265016  0.14758114    -0.94400
O569        O  0.59093202  0.22899635  0.07185683    -0.92900
O570        O  0.49699345  0.12691631  0.06104413    -0.93200
O571        O  0.48418685  0.11672929  0.14890495    -0.92000
C572        C  0.58777909  0.24207877  0.10683264     1.17100
H573        H  0.55010331  0.12192961  0.02602927     0.33000
H574        H  0.53890615  0.12968948  0.20657443     0.43900
H575        H  0.63817303  0.22678894  0.11783095     0.37400
H576        H  0.63187079  0.11506736  0.14108112     0.33900
H577        H  0.46822244  0.05597612  0.13450506     0.25700
H578        H  0.60834175  0.09241006  0.26615248     0.31600
H579        H  0.67595749  0.15312774  0.19567197     0.37500
H580        H  0.47968673  0.10697653  0.04962360     0.32000
H581        H  0.56797218  0.20036134  0.98468808     0.30800
H582        H  0.62891299  0.23772508  0.00159832     0.32500
H583        H  0.70946103  0.23280619  0.10333499     0.31500
H584        H  0.49409123  0.13917846  0.15610481     0.35500
H585        H  0.53942475  0.18376273  0.22984236     0.28200
H586        H  0.63313482  0.08633396  0.06853563     0.32500
H587        H  0.67600417  0.14674128  0.08685178     0.35300
H588        H  0.54580329  0.16449012  0.99145087     0.27900
H589        H  0.56813229  0.21395243  0.24898089     0.40800
H590        H  0.52703499  0.05727727  0.22140492     0.30800
H591        H  0.49410849  0.04991694  0.14751219     0.38500
H592        H  0.68384188  0.23138865  0.07301561     0.30300
H593        H  0.57393457  0.06592019  0.26317219     0.30400
H594        H  0.63646066  0.10325107  0.02274517     0.30600
Zr595      Zr  0.58392711  0.10462038  0.57361577     2.17500
O596        O  0.61532367  0.08479765  0.54724583    -0.51700
O597        O  0.53762299  0.06802772  0.53497433    -0.74900
O598        O  0.56329432  0.05532649  0.61836986    -0.81700
O599        O  0.58995785  0.16130034  0.48305045    -0.83500
O600        O  0.58763935  0.07243646  0.68448999    -0.79100
O601        O  0.58892294  0.11571270  0.49202497    -0.90700
O602        O  0.50063490  0.07553769  0.56165029    -0.76700
O603        O  0.55145131  0.09417033  0.63633301    -0.86200
O604        O  0.55693418  0.13054487  0.55982470    -0.85900
O605        O  0.61848382  0.12752238  0.63634265    -0.72600
O606        O  0.62092340  0.15978150  0.56543803    -0.84700
Zr607      Zr  0.59324261  0.19633324  0.68143897     2.26400
Zr608      Zr  0.58515845  0.11792210  0.69876014     2.06300
Zr609      Zr  0.59281821  0.18489193  0.55476532     2.10000
Zr610      Zr  0.52316940  0.11792729  0.62024924     1.78800
O611        O  0.63873141  0.22340851  0.51552580    -0.93600
O612        O  0.48477969  0.07321898  0.66285849    -0.41400
O613        O  0.55940060  0.17337284  0.61736373    -0.78000
O614        O  0.55502352  0.14100847  0.68674428    -0.96700
O615        O  0.62193317  0.17208970  0.69188370    -0.90000
O616        O  0.62588205  0.20810138  0.61776138    -0.92800
C617        C  0.51015654  0.06194553  0.53496165     1.00900
C618        C  0.58920526  0.13717630  0.46774365     1.13900
C619        C  0.56938600  0.05017965  0.65872250     1.04600
O620        O  0.54023250  0.09115386  0.74655255    -0.95000
O621        O  0.61619651  0.15679659  0.75340647    -0.90700
O622        O  0.59117700  0.18149790  0.76157453    -0.83900
C623        C  0.60463381  0.16827649  0.77849822     1.11300
O624        O  0.68862625  0.17165394  0.59092377    -0.97000
Zr625      Zr  0.65378086  0.18304450  0.62915047     1.88900
O626        O  0.64365018  0.23965408  0.70556604    -0.73600
O627        O  0.59782382  0.09458136  0.76031742    -0.52900
O628        O  0.68298238  0.17302789  0.68381215    -0.97500
O629        O  0.69060598  0.22406849  0.57948318    -0.54800
O630        O  0.67816761  0.22900211  0.67747585    -0.74100
C631        C  0.67106297  0.24549050  0.70158406     0.98200
O632        O  0.56871674  0.21504366  0.73136433    -0.62900
O633        O  0.56024002  0.19270840  0.50368167    -0.57700
O634        O  0.58536577  0.23533016  0.64352506    -0.94400
O635        O  0.58918902  0.23001319  0.56813483    -0.92900
O636        O  0.49591711  0.13316735  0.56958808    -0.93200
O637        O  0.48755170  0.12713624  0.66079508    -0.92000
C638        C  0.58566531  0.24342942  0.60216791     1.17100
H639        H  0.54546464  0.12399251  0.53218555     0.33000
H640        H  0.54216110  0.13771847  0.71243604     0.43900
H641        H  0.63901313  0.23031919  0.61369469     0.37400
H642        H  0.62983798  0.11735052  0.64071753     0.33900
H643        H  0.48762619  0.05592912  0.65424331     0.25700
H644        H  0.62035190  0.10687491  0.76227111     0.31600
H645        H  0.70268452  0.19301525  0.68652963     0.37500
H646        H  0.50694671  0.15617202  0.57163596     0.32000
H647        H  0.54359947  0.17148851  0.49529758     0.30800
H648        H  0.63165320  0.23320823  0.49377887     0.32500
H649        H  0.70925102  0.23596022  0.59806200     0.31500
H650        H  0.49805021  0.15010037  0.66315889     0.35500
H651        H  0.58108852  0.23806430  0.72951701     0.28200
H652        H  0.62370958  0.08120343  0.57505191     0.32500
H653        H  0.67725085  0.14866371  0.58837039     0.35300
H654        H  0.57225946  0.20142155  0.47575915     0.27900
H655        H  0.54915819  0.20897229  0.71646561     0.40800
H656        H  0.53459999  0.06910778  0.74625111     0.30800
H657        H  0.49179189  0.07786507  0.69454088     0.38500
H658        H  0.68324166  0.23853067  0.57542540     0.30300
H659        H  0.59089891  0.09971615  0.78823582     0.30400
H660        H  0.63304299  0.10298120  0.53289123     0.30600
Zr661      Zr  0.42285894  0.90618515  0.32169782     2.17500
O662        O  0.39501330  0.92985908  0.29429464    -0.51700
O663        O  0.46942337  0.94083041  0.28057741    -0.74900
O664        O  0.44492673  0.95556986  0.36755648    -0.81700
O665        O  0.39847014  0.84049479  0.23399707    -0.83500
O666        O  0.42165049  0.93671559  0.43331397    -0.79100
O667        O  0.41106934  0.89103537  0.24163893    -0.90700
O668        O  0.50450070  0.92830382  0.29785787    -0.76700
O669        O  0.45823106  0.91514578  0.37995949    -0.86200
O670        O  0.44450739  0.87563059  0.30293261    -0.85900
O671        O  0.39211130  0.88673883  0.38856382    -0.72600
O672        O  0.38222553  0.85189479  0.31891040    -0.84700
Zr673      Zr  0.41157875  0.81174330  0.42713405     2.26400
Zr674      Zr  0.42824691  0.89382269  0.44647406     2.06300
Zr675      Zr  0.40486640  0.82173639  0.30360396     2.10000
Zr676      Zr  0.48162529  0.88730995  0.35878838     1.78800
O677        O  0.35532427  0.78272155  0.27329163    -0.93600
O678        O  0.51920138  0.93399195  0.39919556    -0.41400
O679        O  0.44204900  0.83245708  0.35990064    -0.78000
O680        O  0.45323630  0.86607346  0.42874235    -0.96700
O681        O  0.38821386  0.84068219  0.44338819    -0.90000
O682        O  0.37506967  0.80202973  0.36971057    -0.92800
C683        C  0.49563700  0.94417256  0.27481773     1.00900
C684        C  0.40375376  0.86637707  0.21833725     1.13900
C685        C  0.43981595  0.95971142  0.40898331     1.04600
O686        O  0.47788373  0.92083184  0.48343035    -0.95000
O687        O  0.39805655  0.85692803  0.50348025    -0.90700
O688        O  0.41763242  0.82669284  0.50776447    -0.83900
C689        C  0.40770734  0.84265622  0.52680901     1.11300
O690        O  0.31725648  0.84610211  0.35722631    -0.97000
Zr691      Zr  0.35301192  0.83244883  0.38642206     1.88900
O692        O  0.36123619  0.77276780  0.45713914    -0.73600
O693        O  0.42777737  0.91883581  0.51681437    -0.52900
O694        O  0.33477715  0.85143486  0.44666914    -0.97500
O695        O  0.30907562  0.79551465  0.34154975    -0.54800
O696        O  0.32820938  0.78774737  0.43664311    -0.74100
C697        C  0.33491935  0.77004550  0.45831526     0.98200
O698        O  0.43669219  0.78868415  0.46625620    -0.62900
O699        O  0.43418520  0.81377260  0.24657915    -0.57700
O700        O  0.41171922  0.76848728  0.38671912    -0.94400
O701        O  0.40560795  0.77431845  0.31247603    -0.92900
O702        O  0.50717404  0.87043885  0.30783646    -0.93200
O703        O  0.51821983  0.87632592  0.39265036    -0.92000
C704        C  0.40891375  0.75965996  0.34506075     1.17100
H705        H  0.45381099  0.88079916  0.27349888     0.33000
H706        H  0.46706973  0.86863930  0.45274404     0.43900
H707        H  0.35991894  0.78012017  0.36670283     0.35000
H708        H  0.38167343  0.89777041  0.39345042     0.33900
H709        H  0.52276977  0.92658213  0.42808912     0.25700
H710        H  0.44317213  0.94130611  0.51365225     0.31600
H711        H  0.35279182  0.86452112  0.46593787     0.37500
H712        H  0.49690981  0.86758039  0.27843830     0.32000
H713        H  0.44480669  0.83335429  0.22907657     0.30800
H714        H  0.35973390  0.77126943  0.25056126     0.32500
H715        H  0.29382238  0.78119202  0.36373433     0.31500
H716        H  0.51213545  0.87145877  0.42461999     0.35500
H717        H  0.45466816  0.80640730  0.48104589     0.28200
H718        H  0.39291466  0.94042264  0.32090689     0.32500
H719        H  0.32886546  0.86915617  0.35657274     0.35300
H720        H  0.45073781  0.81365582  0.26343939     0.27900
H721        H  0.42281958  0.77657807  0.49128247     0.40800
H722        H  0.48737300  0.94276878  0.47359217     0.30800
H723        H  0.53834558  0.94184891  0.38211707     0.38500
H724        H  0.31554704  0.78264388  0.32583393     0.30300
H725        H  0.40794377  0.91759533  0.51720246     0.30400
H726        H  0.37414114  0.91200204  0.28863388     0.30600
Zr727      Zr  0.41876301  0.90238764  0.81853616     2.17500
O728        O  0.38648946  0.92161235  0.79362982    -0.51700
O729        O  0.46369880  0.93772944  0.77489467    -0.74900
O730        O  0.44338314  0.95329694  0.86060300    -0.81700
O731        O  0.40214022  0.83618472  0.73579308    -0.83500
O732        O  0.41666244  0.93739907  0.92400012    -0.79100
O733        O  0.40927135  0.88491903  0.73884878    -0.90700
O734        O  0.50157424  0.93116809  0.80018536    -0.76700
O735        O  0.45349190  0.91534759  0.87927151    -0.86200
O736        O  0.44477352  0.87547880  0.80493018    -0.85900
O737        O  0.38716579  0.88247993  0.88502304    -0.72600
O738        O  0.38149832  0.84698094  0.81854943    -0.84700
Zr739      Zr  0.41533090  0.81625531  0.93330213     2.26400
Zr740      Zr  0.42297137  0.89513425  0.94560324     2.06300
Zr741      Zr  0.40861640  0.82079519  0.80807614     2.10000
Zr742      Zr  0.48150967  0.89161233  0.86256563     1.78800
O743        O  0.36124320  0.77886457  0.77573566    -0.93600
O744        O  0.52075821  0.94046077  0.89647861    -0.41400
O745        O  0.44581653  0.83602113  0.86605095    -0.78000
O746        O  0.45300584  0.87198594  0.93261622    -0.96700
O747        O  0.38685030  0.84068738  0.94488094    -0.90000
O748        O  0.37887255  0.80110306  0.87407508    -0.92800
C749        C  0.49121420  0.94389466  0.77326457     1.00900
C750        C  0.40456156  0.86028365  0.71766377     1.13900
C751        C  0.43740049  0.95910102  0.90047965     1.04600
O752        O  0.46997986  0.92597198  0.98839404    -0.95000
O753        O  0.39608531  0.85877504  0.00529223    -0.90700
O754        O  0.41981663  0.83254080  0.01236437    -0.83900
C755        C  0.40783481  0.84698278  0.02976294     1.11300
O756        O  0.31311236  0.83751983  0.85961779    -0.97000
Zr757      Zr  0.35168558  0.82690787  0.88560595     1.88900
O758        O  0.36601830  0.77442774  0.96261364    -0.73600
O759        O  0.41093701  0.92102727  0.00423722    -0.52900
O760        O  0.32680950  0.83713197  0.94700865    -0.97500
O761        O  0.31399014  0.78859876  0.83371950    -0.54800
O762        O  0.32855012  0.78037680  0.93278301    -0.74100
C763        C  0.33785675  0.76613527  0.95778288     0.98200
O764        O  0.44603371  0.80064760  0.97496549    -0.62900
O765        O  0.44148476  0.81629075  0.75366514    -0.57700
O766        O  0.41860793  0.77327293  0.89927146    -0.94400
O767        O  0.41132981  0.77528714  0.82410665    -0.92900
O768        O  0.50634227  0.87284279  0.81349864    -0.93200
O769        O  0.51980552  0.88617168  0.90265819    -0.92000
C770        C  0.41579986  0.76293220  0.85862441     1.17100
H771        H  0.45449952  0.88035443  0.77580543     0.33000
H772        H  0.46707916  0.87681145  0.95725147     0.43900
H773        H  0.36553765  0.77875169  0.87206283     0.37400
H774        H  0.37555292  0.89241359  0.88852701     0.33900
H775        H  0.54006232  0.94481449  0.88259585     0.25700
H776        H  0.38839375  0.90984052  0.00453061     0.31600
H777        H  0.34046265  0.85954556  0.95392889     0.37500
H778        H  0.52202598  0.89153591  0.79716903     0.32000
H779        H  0.45773785  0.81654265  0.77189369     0.30800
H780        H  0.36493384  0.76178783  0.76974086     0.32500
H781        H  0.31768700  0.77121036  0.83384414     0.31500
H782        H  0.50811135  0.86915472  0.92452531     0.35500
H783        H  0.46298850  0.82017754  0.98803508     0.28200
H784        H  0.36554999  0.90314897  0.79500988     0.32500
H785        H  0.32450803  0.86000287  0.85227141     0.35300
H786        H  0.42929564  0.79479797  0.74168652     0.27900
H787        H  0.43339062  0.78861751  0.00105576     0.40800
H788        H  0.46416104  0.92066773  0.02035587     0.30800
H789        H  0.51734368  0.95645481  0.88336642     0.38500
H790        H  0.32069304  0.79808656  0.80350576     0.30300
H791        H  0.41633027  0.91545298  0.03328939     0.30400
H792        H  0.39071791  0.92569303  0.76103054     0.30600
C793        C  0.38318773  0.84907927  0.59399164    -0.06200
C794        C  0.40678251  0.84574059  0.57633352    -0.00200
C795        C  0.43071786  0.85040815  0.60509793    -0.08800
C796        C  0.42931259  0.85679891  0.65068462    -0.06200
C797        C  0.40535486  0.85931759  0.66835846    -0.00300
C798        C  0.38146916  0.85484970  0.63979841    -0.08700
C799        C  0.35353635  0.85513311  0.65527190     0.61700
H800        H  0.36562453  0.84712528  0.57173638     0.12400
H801        H  0.44694782  0.85942792  0.67357958     0.12400
C802        C  0.45819281  0.84990312  0.58792790     0.61900
F803        F  0.35387386  0.88033509  0.63611603    -0.23300
F804        F  0.35187653  0.85702449  0.70149100    -0.20600
F805        F  0.32753482  0.82808477  0.64102887    -0.20300
F806        F  0.47131721  0.87046694  0.55238648    -0.20300
F807        F  0.44929058  0.82016863  0.57382626    -0.20700
F808        F  0.48025982  0.85861962  0.62096253    -0.23300
C809        C  0.38151303  0.85101685  0.09627983    -0.06200
C810        C  0.40702326  0.85107023  0.07887593    -0.00200
C811        C  0.43242228  0.85970960  0.10711414    -0.08800
C812        C  0.43130770  0.86811609  0.15172560    -0.06200
C813        C  0.40567734  0.86746728  0.16918578    -0.00300
C814        C  0.38024098  0.85862442  0.14142861    -0.08700
C815        C  0.35190735  0.85671520  0.15987177     0.61700
H816        H  0.36231144  0.84456812  0.07420859     0.12400
H817        H  0.45000025  0.87371619  0.17446090     0.12400
C818        C  0.46044042  0.85980957  0.09093809     0.61900
F819        F  0.33035315  0.84958334  0.12653646    -0.23300
F820        F  0.35963364  0.88506226  0.17862958    -0.20600
F821        F  0.33895678  0.83389419  0.19264524    -0.20300
F822        F  0.47239474  0.87838783  0.05321231    -0.20300
F823        F  0.45257093  0.82973261  0.08060259    -0.20700
F824        F  0.48312104  0.87116909  0.12344519    -0.23300
C825        C  0.52154975  0.99813082  0.66873399    -0.06200
C826        C  0.55237760  0.01816148  0.67977187    -0.00200
C827        C  0.56396401  0.01001841  0.71757658    -0.08800
C828        C  0.54355880  0.98613049  0.74725076    -0.06200
C829        C  0.51213132  0.96760808  0.73837003    -0.00300
C830        C  0.50158101  0.97235586  0.69615018    -0.08700
C831        C  0.46992947  0.94950531  0.67831144     0.61700
H832        H  0.51267651  0.00355439  0.63933460     0.12400
H833        H  0.55248824  0.98182626  0.77765397     0.12400
C834        C  0.59773120  0.02513911  0.72731743     0.61900
F835        F  0.46713222  0.95420254  0.63300571    -0.23300
F836        F  0.44829363  0.95232482  0.70156746    -0.20600
F837        F  0.46435302  0.91973840  0.68296062    -0.20300
F838        F  0.60541844  0.04408047  0.76479874    -0.20300
F839        F  0.61562973  0.04240730  0.69132183    -0.20700
F840        F  0.60425277  0.00224991  0.73605136    -0.23300
C841        C  0.50307736  0.03748309  0.45883727    -0.06200
C842        C  0.48955333  0.03858321  0.49974395    -0.00200
C843        C  0.45828277  0.01609843  0.50637511    -0.08800
C844        C  0.44216760  0.99346015  0.47247926    -0.06200
C845        C  0.45630875  0.99071015  0.43334849    -0.00300
C846        C  0.48734155  0.01385815  0.42597902    -0.08700
C847        C  0.50434413  0.01310450  0.38475705     0.61700
H848        H  0.52685179  0.05489682  0.45342409     0.12400
H849        H  0.41840361  0.97605581  0.47797670     0.12400
C850        C  0.44239436  0.01425719  0.55031603     0.61900
F851        F  0.53425738  0.03782804  0.38410131    -0.23300
F852        F  0.49011246  0.01477293  0.34623002    -0.20600
F853        F  0.50477103  0.98588683  0.38424581    -0.20300
F854        F  0.44073108  0.04058662  0.55550504    -0.20300
F855        F  0.45838852  0.01190719  0.58604393    -0.20700
F856        F  0.41301281  0.98856086  0.55169002    -0.23300
C857        C  0.62999050  0.16679576  0.89834082    -0.06200
C858        C  0.60248335  0.14325003  0.91721422    -0.00200
C859        C  0.57618610  0.12753915  0.88975711    -0.08800
C860        C  0.57736712  0.13830832  0.84561900    -0.06200
C861        C  0.60456675  0.16254695  0.82721815    -0.00300
C862        C  0.63181244  0.17560902  0.85284274    -0.08700
C863        C  0.66250536  0.19869090  0.83221038     0.61700
H864        H  0.64993156  0.17856741  0.91984681     0.12400
H865        H  0.55721408  0.12710039  0.82449884     0.12400
C866        C  0.54722027  0.09930056  0.90703249     0.61900
F867        F  0.68577014  0.21022249  0.86377162    -0.23300
F868        F  0.66169989  0.22349438  0.81395253    -0.20600
F869        F  0.66929414  0.18423570  0.79866356    -0.20300
F870        F  0.53528374  0.10778312  0.94185202    -0.20300
F871        F  0.55377034  0.07752954  0.92240551    -0.20700
F872        F  0.52530862  0.08541617  0.87358600    -0.23300
C873        C  0.56906493  0.14202388  0.34746440    -0.06200
C874        C  0.59721984  0.15327872  0.32667616    -0.00200
C875        C  0.62158034  0.15461772  0.35141841    -0.08800
C876        C  0.61680301  0.14543201  0.39700406    -0.06200
C877        C  0.58887600  0.13537228  0.41824415    -0.00300
C878        C  0.56436347  0.13303028  0.39276235    -0.08700
C879        C  0.53302232  0.12228595  0.41147936     0.61700
H880        H  0.55030727  0.14011126  0.32795806     0.12400
H881        H  0.63545763  0.14784739  0.41724454     0.12400
C882        C  0.65300182  0.16746748  0.33090359     0.61900
F883        F  0.51115628  0.09805797  0.38540376    -0.23300
F884        F  0.52811009  0.14676165  0.40973622    -0.20600
F885        F  0.52930707  0.11185085  0.45523608    -0.20300
F886        F  0.66239592  0.19562949  0.30997235    -0.20300
F887        F  0.65227636  0.14669892  0.29976663    -0.20700
F888        F  0.67455068  0.17250940  0.36322078    -0.23300
C889        C  0.54822883  0.98242240  0.24198491    -0.06200
C890        C  0.51625772  0.96789135  0.23896762    -0.00200
C891        C  0.50467015  0.97690197  0.20158591    -0.08800
C892        C  0.52494571  0.00077512  0.17178058    -0.06200
C893        C  0.55657927  0.01672549  0.17698648    -0.00300
C894        C  0.56842726  0.00620400  0.21152959    -0.08700
C895        C  0.60230374  0.01961405  0.21775469     0.61700
H896        H  0.55773095  0.97564846  0.26906093     0.12400
H897        H  0.51597258  0.00895734  0.14585795     0.12400
C898        C  0.47089045  0.96176653  0.19215611     0.61900
F899        F  0.60774421  0.99566358  0.22329826    -0.23300
F900        F  0.61228908  0.03825168  0.25575671    -0.20600
F901        F  0.61911166  0.03695887  0.18103018    -0.20300
F902        F  0.45749168  0.97051068  0.22447463    -0.20300
F903        F  0.45775211  0.92998729  0.19201494    -0.20700
F904        F  0.46509628  0.97001803  0.15050808    -0.23300
C905        C  0.48597955  0.99087178  0.94093102    -0.06200
C906        C  0.45911154  0.98844031  0.92548661    -0.00200
C907        C  0.45072288  0.00885578  0.94403686    -0.08800
C908        C  0.46992151  0.03142468  0.97653324    -0.06200
C909        C  0.49645891  0.03323706  0.99321308    -0.00300
C910        C  0.50421403  0.01179881  0.97538453    -0.08700
C911        C  0.53032657  0.00901214  0.99409237     0.61700
H912        H  0.49149584  0.97443888  0.92769375     0.12400
H913        H  0.46396538  0.04756609  0.98974722     0.12400
C914        C  0.42145834  0.00664702  0.92953115     0.61900
F915        F  0.52930210  0.98255848  0.97862045    -0.23300
F916        F  0.52866218  0.00712990  0.04061709    -0.20600
F917        F  0.55805497  0.03434047  0.98113010    -0.20300
F918        F  0.39678380  0.97810131  0.94202912    -0.20300
F919        F  0.42135242  0.00972530  0.88324990    -0.20700
F920        F  0.41822865  0.02970875  0.94907637    -0.23300
C921        C  0.72635143  0.32303770  0.76317737    -0.06200
C922        C  0.74796684  0.31658291  0.78112258    -0.00200
C923        C  0.74366487  0.28663065  0.77156234    -0.08800
C924        C  0.71817149  0.26496214  0.74609420    -0.06200
C925        C  0.69660913  0.27123868  0.72871481    -0.00300
C926        C  0.70082712  0.30101033  0.73715384    -0.08700
C927        C  0.67897055  0.30984627  0.71823379     0.61700
H928        H  0.72940179  0.34560130  0.76997694     0.12400
H929        H  0.71448548  0.24206170  0.73997439     0.12400
C930        C  0.76549141  0.27663762  0.78723564     0.61900
F931        F  0.68947544  0.34108934  0.72494244    -0.23300
F932        F  0.65102231  0.29256694  0.73920888    -0.20600
F933        F  0.67535465  0.30414663  0.67236032    -0.20300
F934        F  0.76490819  0.27443905  0.83371217    -0.20300
F935        F  0.79464206  0.29779058  0.77256589    -0.20700
F936        F  0.75787460  0.24781978  0.77024133    -0.23300
C937        C  0.72025970  0.27001080  0.23647359    -0.06200
C938        C  0.69307950  0.26982455  0.22954010    -0.00200
C939        C  0.69190365  0.29583484  0.24570699    -0.08800
C940        C  0.71722060  0.31979870  0.27000803    -0.06200
C941        C  0.74372206  0.31894225  0.27840470    -0.00300
C942        C  0.74559796  0.29404719  0.25952747    -0.08700
C943        C  0.77417528  0.29233501  0.26319564     0.61700
H944        H  0.72152991  0.25047278  0.22432874     0.12400
H945        H  0.71622392  0.33919624  0.28355278     0.12400
C946        C  0.66456161  0.29888962  0.23684542     0.61900
F947        F  0.77377635  0.27118613  0.23298658    -0.23300
F948        F  0.77632201  0.28300184  0.30612752    -0.20600
F949        F  0.79980038  0.32103540  0.25394323    -0.20300
F950        F  0.63953928  0.27597139  0.25992298    -0.20300
F951        F  0.65825429  0.29611874  0.19115647    -0.20700
F952        F  0.66968477  0.32746676  0.25084667    -0.23300
C953        C  0.83760691  0.39318404  0.62025969    -0.06200
C954        C  0.86306503  0.41795255  0.59850444    -0.00200
C955        C  0.88340077  0.44501744  0.62339043    -0.08800
C956        C  0.87823441  0.44591498  0.66952667    -0.06200
C957        C  0.85293824  0.42127267  0.69108182    -0.00300
C958        C  0.83227205  0.39434681  0.66650798    -0.08700
C959        C  0.80507199  0.36710996  0.68934961     0.61700
H960        H  0.82153209  0.37318386  0.60037633     0.12400
H961        H  0.89412051  0.46596281  0.68951366     0.12400
C962        C  0.90989737  0.47320456  0.60118926     0.61900
F963        F  0.78829392  0.34257547  0.65993129    -0.23300
F964        F  0.78621460  0.37664634  0.70607253    -0.20600
F965        F  0.81489027  0.35642049  0.72441995    -0.20300
F966        F  0.89924443  0.48477536  0.56856789    -0.20300
F967        F  0.92861275  0.46457752  0.58181804    -0.20700
F968        F  0.92714656  0.49687401  0.63164688    -0.23300
C969        C  0.83461095  0.38040842  0.16818650    -0.06200
C970        C  0.84230107  0.41032151  0.18210325    -0.00200
C971        C  0.85575371  0.43530471  0.15143330    -0.08800
C972        C  0.86241230  0.42983588  0.10794417    -0.06200
C973        C  0.85572790  0.40022162  0.09433139    -0.00300
C974        C  0.84077828  0.37476440  0.12425706    -0.08700
C975        C  0.83287432  0.34234010  0.11055056     0.61700
H976        H  0.82518152  0.36186026  0.19279502     0.12400
H977        H  0.87293721  0.44882239  0.08403987     0.12400
C978        C  0.86365407  0.46768614  0.16527575     0.61900
F979        F  0.82029436  0.32139450  0.14584174    -0.23300
F980        F  0.85894895  0.34326663  0.09666158    -0.20600
F981        F  0.81199047  0.33146695  0.07561226    -0.20300
F982        F  0.88529487  0.47891491  0.19919369    -0.20300
F983        F  0.83772390  0.46639883  0.18077792    -0.20700
F984        F  0.87515044  0.48844494  0.12965217    -0.23300
C985        C  0.30554122  0.71528658  0.48759179    -0.06200
C986        C  0.31062066  0.74550898  0.48770409    -0.00200
C987        C  0.29264655  0.75203891  0.51639968    -0.08800
C988        C  0.26915124  0.72781998  0.54167381    -0.06200
C989        C  0.26277578  0.69703096  0.54035177    -0.00300
C990        C  0.28200973  0.69079901  0.51329168    -0.08700
C991        C  0.27819166  0.65877778  0.51087132     0.61700
H992        H  0.31983006  0.71084982  0.46613430     0.12400
H993        H  0.25503483  0.73304134  0.56215068     0.12400
C994        C  0.29801603  0.78456396  0.52086215     0.61900
F995        F  0.30079081  0.65894956  0.48549277    -0.23300
F996        F  0.25051013  0.63776462  0.49112018    -0.20600
F997        F  0.27971275  0.64888646  0.55371657    -0.20300
F998        F  0.28593351  0.79101646  0.48381405    -0.20300
F999        F  0.32881989  0.80623744  0.52378206    -0.20700
F1000       F  0.28451317  0.78759218  0.55919809    -0.23300
C1001       C  0.03737682  0.50958992  0.82287256    -0.06200
C1002       C  0.03902302  0.49518343  0.78292599    -0.00200
C1003       C  0.01879666  0.46253951  0.77842007    -0.08800
C1004       C  0.99667212  0.44627087  0.81218209    -0.06200
C1005       C  0.99281935  0.46123484  0.84959604    -0.00300
C1006       C  0.01460358  0.49336123  0.85607223    -0.08700
C1007       C  0.01302042  0.51091894  0.89644849     0.61700
H1008       H  0.05346387  0.53430467  0.82705719     0.12400
H1009       H  0.98046128  0.42160077  0.80783383     0.12400
C1010       C  0.01901278  0.44500799  0.73694105     0.61900
F1011       F  0.03701134  0.54159695  0.89729106    -0.23300
F1012       F  0.01414029  0.49678509  0.93573903    -0.20600
F1013       F  0.98622746  0.51094327  0.89520085    -0.20300
F1014       F  0.04607895  0.44549168  0.73515656    -0.20300
F1015       F  0.01586598  0.45867201  0.69855725    -0.20700
F1016       F  0.99539537  0.41416317  0.73724290    -0.23300
C1017       C  0.01141416  0.52654197  0.57676866    -0.06200
C1018       C  0.01733886  0.55581122  0.59000523    -0.00200
C1019       C  0.00040889  0.56736502  0.56859531    -0.08800
C1020       C  0.97820578  0.54904115  0.53520153    -0.06200
C1021       C  0.97303777  0.52002096  0.52041354    -0.00300
C1022       C  0.99105961  0.50903711  0.54144190    -0.08700
C1023       C  0.99117787  0.48007460  0.52594209     0.61700
H1024       H  0.02493529  0.51841295  0.59260532     0.12400
H1025       H  0.96489240  0.55778724  0.52030381     0.12400
C1026       C  0.00425449  0.59849665  0.58029474     0.61900
F1027       F  0.01406405  0.47767419  0.54636893    -0.23300
F1028       F  0.99617507  0.48143217  0.48015874    -0.20600
F1029       F  0.96408651  0.45311737  0.53629583    -0.20300
F1030       F  0.01240132  0.61679369  0.54202023    -0.20300
F1031       F  0.02612079  0.61453062  0.61306366    -0.20700
F1032       F  0.97684126  0.59365279  0.59600555    -0.23300
C1033       C  0.26847535  0.68771402  0.99253487    -0.06200
C1034       C  0.26628525  0.69284727  0.03862402    -0.00200
C1035       C  0.28947383  0.72125509  0.05841742    -0.08800
C1036       C  0.31315085  0.74382898  0.03105094    -0.06200
C1037       C  0.31436901  0.73931139  0.98471025    -0.00300
C1038       C  0.29190823  0.71067206  0.96504417    -0.08700
C1039       C  0.29267746  0.70455056  0.91517775     0.61700
H1040       H  0.25085802  0.66599620  0.97772133     0.12400
H1041       H  0.33027820  0.76599787  0.04542323     0.12400
C1042       C  0.28914522  0.72857157  0.10792905     0.61900
F1043       F  0.26978745  0.67476737  0.90307380    -0.23300
F1044       F  0.32038576  0.70795175  0.90447804    -0.20600
F1045       F  0.28887738  0.72543563  0.89023580    -0.20300
F1046       F  0.28111916  0.70268826  0.13411786    -0.20300
F1047       F  0.26853889  0.73792117  0.11458946    -0.20700
F1048       F  0.31754205  0.75228392  0.12235964    -0.23300
C1049       C  0.99969279  0.44743998  0.31848121    -0.06200
C1050       C  0.99388493  0.46475214  0.35005852    -0.00200
C1051       C  0.01434188  0.49756136  0.35068014    -0.08800
C1052       C  0.03753163  0.51154021  0.31799736    -0.06200
C1053       C  0.04063747  0.49474648  0.28243054    -0.00300
C1054       C  0.02248441  0.46168976  0.28459299    -0.08700
C1055       C  0.02578722  0.44138834  0.25024089     0.61700
H1056       H  0.98388965  0.42248130  0.31756437     0.12400
H1057       H  0.05248746  0.53665968  0.31907633     0.12400
C1058       C  0.01205319  0.51970606  0.38272887     0.61900
F1059       F  0.00627495  0.40998875  0.25893078    -0.23300
F1060       F  0.05521892  0.44734983  0.25128655    -0.20600
F1061       F  0.01922697  0.44749579  0.20764935    -0.20300
F1062       F  0.03767015  0.53391343  0.41000630    -0.20300
F1063       F  0.98671483  0.50523268  0.40976878    -0.20700
F1064       F  0.01081991  0.54244331  0.35836215    -0.23300
C1065       C  0.16902960  0.62215438  0.91950028    -0.06200
C1066       C  0.15496840  0.59145016  0.93524864    -0.00200
C1067       C  0.13600657  0.56641024  0.90619003    -0.08800
C1068       C  0.13096927  0.57301072  0.86218052    -0.06200
C1069       C  0.14459596  0.60374865  0.84656768    -0.00300
C1070       C  0.16425083  0.62883909  0.87533546    -0.08700
C1071       C  0.17922870  0.66250326  0.86016162     0.61700
H1072       H  0.18280566  0.64096999  0.94281102     0.12400
H1073       H  0.11663388  0.55411214  0.83931764     0.12400
C1074       C  0.12136823  0.53292810  0.92186213     0.61900
F1075       F  0.19109286  0.68293745  0.89621835    -0.23300
F1076       F  0.15810712  0.66725526  0.83872646    -0.20600
F1077       F  0.20277369  0.66950400  0.83084819    -0.20300
F1078       F  0.09964700  0.52661710  0.95424552    -0.20300
F1079       F  0.14343567  0.52827671  0.94005877    -0.20700
F1080       F  0.10737275  0.51205639  0.88670956    -0.23300
C1081       C  0.13967229  0.57361444  0.42389873    -0.06200
C1082       C  0.15541423  0.60294596  0.44400942    -0.00200
C1083       C  0.16397084  0.62994849  0.41826069    -0.08800
C1084       C  0.15616709  0.62636069  0.37230249    -0.06200
C1085       C  0.14004733  0.59681463  0.35215771    -0.00300
C1086       C  0.13173787  0.56991349  0.37836147    -0.08700
C1087       C  0.11484835  0.53675071  0.36085322     0.61700
H1088       H  0.13281999  0.55312751  0.44438365     0.12400
H1089       H  0.16346915  0.64667642  0.35133065     0.12400
C1090       C  0.18217113  0.66228414  0.43883778     0.61900
F1091       F  0.08827634  0.51924745  0.38518342    -0.23300
F1092       F  0.13283209  0.52406191  0.36647296    -0.20600
F1093       F  0.10715624  0.53459758  0.31615573    -0.20300
F1094       F  0.20739601  0.66576463  0.46113342    -0.20300
F1095       F  0.16428569  0.66658206  0.46898011    -0.20700
F1096       F  0.19229705  0.68534839  0.40638849    -0.23300
C1097       C  0.99794188  0.52387366  0.10961555    -0.06200
C1098       C  0.01530696  0.55602455  0.10265194    -0.00200
C1099       C  0.00554532  0.56891514  0.06881674    -0.08800
C1100       C  0.98174730  0.54890824  0.03887709    -0.06200
C1101       C  0.96635779  0.51620932  0.04246376    -0.00300
C1102       C  0.97376208  0.50367879  0.08051100    -0.08700
C1103       C  0.95719625  0.46908972  0.09074549     0.61700
H1104       H  0.00548004  0.51423114  0.13552494     0.12400
H1105       H  0.97594255  0.55906114  0.01140898     0.12400
C1106       C  0.02099454  0.60378058  0.06212832     0.61900
F1107       F  0.96424293  0.46314741  0.13318878    -0.23300
F1108       F  0.96506924  0.45407904  0.05967065    -0.20600
F1109       F  0.92627711  0.45691782  0.08966704    -0.20300
F1110       F  0.04139207  0.61293543  0.02686306    -0.20300
F1111       F  0.03633721  0.61999838  0.10061372    -0.20700
F1112       F  0.99952944  0.61154809  0.05209050    -0.23300
C1113       C  0.44568979  0.70930311  0.83364403    -0.06200
C1114       C  0.42084814  0.68497539  0.81013425    -0.00200
C1115       C  0.39336306  0.68511914  0.80689943    -0.08800
C1116       C  0.39218896  0.71003098  0.82636523    -0.06200
C1117       C  0.41722816  0.73468057  0.84892755    -0.00300
C1118       C  0.44435665  0.73414851  0.85323861    -0.08700
C1119       C  0.47216772  0.76035439  0.87673929     0.61700
H1120       H  0.46649807  0.70895789  0.83585593     0.12400
H1121       H  0.37177156  0.71102782  0.82291836     0.12400
C1122       C  0.36573094  0.66001638  0.78130276     0.61900
F1123       F  0.49636100  0.75565243  0.87657331    -0.23300
F1124       F  0.46514628  0.76227224  0.92106021    -0.20600
F1125       F  0.48136293  0.78828003  0.85527272    -0.20300
F1126       F  0.35282324  0.63223051  0.80469179    -0.20300
F1127       F  0.37420020  0.65604901  0.73883903    -0.20700
F1128       F  0.34366347  0.66761418  0.77587945    -0.23300
C1129       C  0.29322142  0.57004531  0.71276265    -0.06200
C1130       C  0.31740531  0.58494078  0.68197167    -0.00200
C1131       C  0.31463100  0.60185435  0.64560200    -0.08800
C1132       C  0.28799462  0.60322681  0.64194210    -0.06200
C1133       C  0.26406423  0.58876730  0.67311192    -0.00300
C1134       C  0.26660791  0.57150244  0.70902307    -0.08700
C1135       C  0.24142977  0.55447057  0.74346761     0.61700
H1136       H  0.29539185  0.55719909  0.74026265     0.12400
H1137       H  0.28575015  0.61603640  0.61454622     0.12400
C1138       C  0.33968148  0.61902391  0.61088130     0.61900
F1139       F  0.24601831  0.53466258  0.76999041    -0.23300
F1140       F  0.21359689  0.53667540  0.72200645    -0.20600
F1141       F  0.24061329  0.57591425  0.77151139    -0.20300
F1142       F  0.34158652  0.59772853  0.58391612    -0.20300
F1143       F  0.36727793  0.63813675  0.63225703    -0.20700
F1144       F  0.33418260  0.63763240  0.58305959    -0.23300
C1145       C  0.40033001  0.68827788  0.28247650    -0.06200
C1146       C  0.42210660  0.68419081  0.30429839    -0.00200
C1147       C  0.43746756  0.70291011  0.34239373    -0.08800
C1148       C  0.43153516  0.72624603  0.35601557    -0.06200
C1149       C  0.41085248  0.73162733  0.33262978    -0.00300
C1150       C  0.39429791  0.71146926  0.29572492    -0.08700
C1151       C  0.37068760  0.71436118  0.26905223     0.61700
H1152       H  0.38870389  0.67368824  0.25352182     0.12400
H1153       H  0.44388884  0.74122266  0.38425387     0.12400
C1154       C  0.45958658  0.69770781  0.36888035     0.61900
F1155       F  0.35202294  0.68774937  0.24408622    -0.23300
F1156       F  0.38524275  0.73909335  0.23945600    -0.20600
F1157       F  0.35221042  0.71885519  0.29775297    -0.20300
F1158       F  0.48348792  0.70283976  0.34159698    -0.20300
F1159       F  0.44459838  0.66736016  0.38443140    -0.20700
F1160       F  0.47152478  0.71747755  0.40562746    -0.23300
C1161       C  0.27373308  0.56836593  0.13963961    -0.06200
C1162       C  0.26650999  0.58407747  0.17170190    -0.00200
C1163       C  0.28538949  0.59600877  0.21107411    -0.08800
C1164       C  0.31060193  0.59225219  0.21583262    -0.06200
C1165       C  0.31833969  0.57750872  0.18315780    -0.00300
C1166       C  0.29897428  0.56454559  0.14468860    -0.08700
C1167       C  0.30420888  0.54609332  0.10921384     0.61700
H1168       H  0.25926132  0.55890437  0.11019061     0.12400
H1169       H  0.32527413  0.60179789  0.24505901     0.12400
C1170       C  0.28023223  0.61384093  0.24775884     0.61900
F1171       F  0.27932115  0.53001491  0.08081677    -0.23300
F1172       F  0.30917759  0.52445954  0.12973016    -0.20600
F1173       F  0.32907109  0.56604750  0.08306258    -0.20300
F1174       F  0.25354716  0.59410114  0.27051849    -0.20300
F1175       F  0.27883831  0.63814082  0.22879632    -0.20700
F1176       F  0.30348616  0.62646015  0.27940067    -0.23300
C1177       C  0.46969891  0.61903711  0.98000834    -0.06200
C1178       C  0.45641229  0.58963863  0.00021819    -0.00200
C1179       C  0.43428040  0.56290695  0.97616304    -0.08800
C1180       C  0.42541849  0.56663777  0.93331387    -0.06200
C1181       C  0.43845484  0.59593128  0.91329164    -0.00300
C1182       C  0.46054842  0.62277413  0.93707921    -0.08700
C1183       C  0.47376545  0.65570734  0.91959848     0.61700
H1184       H  0.48549418  0.63949910  0.99942141     0.12400
H1185       H  0.40909188  0.54614451  0.91438360     0.12400
C1186       C  0.41903658  0.52991936  0.99403758     0.61900
F1187       F  0.50390790  0.66798773  0.90794573    -0.23300
F1188       F  0.45808658  0.65699854  0.88261753    -0.20600
F1189       F  0.47230295  0.67406393  0.95297468    -0.20300
F1190       F  0.38822324  0.51810737  0.99946760    -0.20300
F1191       F  0.43098300  0.52813110  0.03458204    -0.20700
F1192       F  0.42287241  0.51149755  0.96351674    -0.23300
C1193       C  0.47196007  0.60777479  0.48420036    -0.06200
C1194       C  0.45086017  0.58041510  0.50639447    -0.00200
C1195       C  0.42542325  0.55656091  0.48244957    -0.08800
C1196       C  0.42062155  0.56200263  0.43793125    -0.06200
C1197       C  0.44156033  0.58935873  0.41566369    -0.00300
C1198       C  0.46798693  0.61263954  0.43883765    -0.08700
C1199       C  0.49251229  0.64307148  0.41788148     0.61700
H1200       H  0.49096356  0.62615750  0.50303583     0.12400
H1201       H  0.40144348  0.54364043  0.41930636     0.12400
C1202       C  0.40294698  0.52480273  0.50198624     0.61900
F1203       F  0.49598461  0.66774506  0.44328929    -0.23300
F1204       F  0.48593893  0.64718895  0.37424821    -0.20600
F1205       F  0.51981977  0.64397183  0.41790418    -0.20300
F1206       F  0.37499813  0.52205260  0.50741911    -0.20300
F1207       F  0.41234978  0.51965983  0.54283722    -0.20700
F1208       F  0.39956401  0.50182684  0.47268240    -0.23300
C1209       C  0.55656199  0.29526133  0.08619808    -0.06200
C1210       C  0.58201613  0.32170013  0.06714058    -0.00200
C1211       C  0.61008009  0.32260878  0.06503695    -0.08800
C1212       C  0.61125084  0.29671634  0.08060335    -0.06200
C1213       C  0.58564564  0.27011182  0.09843503    -0.00300
C1214       C  0.55790854  0.26949609  0.10202441    -0.08700
C1215       C  0.52958876  0.24119688  0.12092776     0.61700
H1216       H  0.53525161  0.29465026  0.08769470     0.12400
H1217       H  0.63217467  0.29664083  0.07787512     0.12400
C1218       C  0.63837408  0.34997071  0.04426752     0.61900
F1219       F  0.50476566  0.24487703  0.12068792    -0.23300
F1220       F  0.53492268  0.23634177  0.16493703    -0.20600
F1221       F  0.52223117  0.21516817  0.09546325    -0.20300
F1222       F  0.64827225  0.37627504  0.07044807    -0.20300
F1223       F  0.63183317  0.35535531  0.00126579    -0.20700
F1224       F  0.66204366  0.34458069  0.04114262    -0.23300
C1225       C  0.71223627  0.44068654  0.96583343    -0.06200
C1226       C  0.68587364  0.42007568  0.94120644    -0.00200
C1227       C  0.68743898  0.39963793  0.90954369    -0.08800
C1228       C  0.71518379  0.40080776  0.90385399    -0.06200
C1229       C  0.74141936  0.42132902  0.92842204    -0.00300
C1230       C  0.74013566  0.44204452  0.95957795    -0.08700
C1231       C  0.76819876  0.46620578  0.98518480     0.61700
H1232       H  0.71096476  0.45625534  0.98962547     0.12400
H1233       H  0.71661205  0.38540180  0.87990851     0.12400
C1234       C  0.66023227  0.37649131  0.88134835     0.61900
F1235       F  0.76361572  0.48809808  0.00571864    -0.23300
F1236       F  0.79256500  0.48185929  0.95605495    -0.20600
F1237       F  0.77530999  0.45175204  0.01826700    -0.20300
F1238       F  0.65507408  0.39223372  0.84781918    -0.20300
F1239       F  0.63459911  0.36039472  0.90798382    -0.20700
F1240       F  0.66506404  0.35473108  0.86088433    -0.23300
C1241       C  0.53638471  0.50521491  0.79031221    -0.06200
C1242       C  0.55299065  0.52022663  0.82993199    -0.00200
C1243       C  0.56299658  0.55220242  0.83550558    -0.08800
C1244       C  0.55416377  0.56686172  0.80337033    -0.06200
C1245       C  0.53495858  0.55097585  0.76622828    -0.00300
C1246       C  0.52705001  0.51972358  0.75859011    -0.08700
C1247       C  0.50794884  0.50107763  0.71831687     0.61700
H1248       H  0.52971122  0.48119325  0.78504454     0.12400
H1249       H  0.56089711  0.59089410  0.80863308     0.12400
C1250       C  0.58129145  0.57059624  0.87639721     0.61900
F1251       F  0.47997772  0.49863779  0.71944957    -0.23300
F1252       F  0.52291592  0.51569878  0.67895095    -0.20600
F1253       F  0.50270944  0.47115297  0.71776771    -0.20300
F1254       F  0.60876700  0.57191535  0.87756555    -0.20300
F1255       F  0.56500758  0.55651090  0.91506764    -0.20700
F1256       F  0.58759442  0.60090234  0.87588060    -0.23300
C1257       C  0.44536354  0.43799021  0.04115225    -0.06200
C1258       C  0.46735088  0.45414195  0.00732382    -0.00200
C1259       C  0.47976673  0.48661727  0.00333283    -0.08800
C1260       C  0.47285095  0.50205978  0.03658236    -0.06200
C1261       C  0.45362372  0.48648215  0.07377397    -0.00300
C1262       C  0.43802445  0.45335149  0.07420123    -0.08700
C1263       C  0.41495169  0.43402597  0.11028614     0.61700
H1264       H  0.43546887  0.41305476  0.04341668     0.12400
H1265       H  0.48355813  0.52707959  0.03434132     0.12400
C1266       C  0.50171792  0.50541954  0.96581931     0.61900
F1267       F  0.40220047  0.40238675  0.10342974    -0.23300
F1268       F  0.39142572  0.43967886  0.10991387    -0.20600
F1269       F  0.42902335  0.44147280  0.15201499    -0.20300
F1270       F  0.48835351  0.49303240  0.92451714    -0.20300
F1271       F  0.52804303  0.50474911  0.97026663    -0.20700
F1272       F  0.50969452  0.53627346  0.96658115    -0.23300
C1273       C  0.55252012  0.29494745  0.58241176    -0.06200
C1274       C  0.57494661  0.31809390  0.55445230    -0.00200
C1275       C  0.60118666  0.31691909  0.54377887    -0.08800
C1276       C  0.60449157  0.29328244  0.56291699    -0.06200
C1277       C  0.58226896  0.27027208  0.59112632    -0.00300
C1278       C  0.55557182  0.27078539  0.60066572    -0.08700
C1279       C  0.53005314  0.24551022  0.62877814     0.61700
H1280       H  0.53241089  0.29587385  0.58965363     0.12400
H1281       H  0.62434292  0.29203714  0.55494178     0.12400
C1282       C  0.62493108  0.33936507  0.51042464     0.61900
F1283       F  0.53993446  0.24784034  0.67270737    -0.23300
F1284       F  0.52145014  0.21644231  0.61183249    -0.20600
F1285       F  0.50456102  0.24806696  0.62888019    -0.20300
F1286       F  0.64197806  0.36857911  0.52968389    -0.20300
F1287       F  0.61086101  0.34117136  0.47180130    -0.20700
F1288       F  0.64464269  0.32982183  0.49768087    -0.23300
C1289       C  0.70155643  0.43524734  0.45290816    -0.06200
C1290       C  0.67689112  0.41690203  0.42393627    -0.00200
C1291       C  0.68128211  0.40081695  0.38795025    -0.08800
C1292       C  0.70981344  0.40330828  0.38342586    -0.06200
C1293       C  0.73430473  0.42161015  0.41260785    -0.00300
C1294       C  0.73027929  0.43856824  0.44733188    -0.08700
C1295       C  0.75618363  0.46082821  0.47814328     0.61700
H1296       H  0.69837208  0.44766042  0.47998583     0.12400
H1297       H  0.71324750  0.39073689  0.35686217     0.12400
C1298       C  0.65629740  0.38086647  0.35431185     0.61900
F1299       F  0.74970797  0.48088666  0.50025506    -0.23300
F1300       F  0.78250071  0.47890701  0.45349492    -0.20600
F1301       F  0.76103608  0.44400883  0.51023864    -0.20300
F1302       F  0.65025174  0.39965321  0.32797522    -0.20300
F1303       F  0.63028431  0.35910978  0.37685378    -0.20700
F1304       F  0.66454014  0.36484714  0.32563347    -0.23300
C1305       C  0.54016947  0.39202911  0.68374580    -0.06200
C1306       C  0.56681042  0.41657814  0.66382751    -0.00200
C1307       C  0.58801648  0.44201278  0.69067492    -0.08800
C1308       C  0.58136417  0.44214228  0.73643900    -0.06200
C1309       C  0.55467517  0.41776201  0.75608117    -0.00300
C1310       C  0.53377536  0.39210773  0.72968542    -0.08700
C1311       C  0.50525158  0.36490250  0.75007941     0.61700
H1312       H  0.52407321  0.37281242  0.66267459     0.12400
H1313       H  0.59746828  0.46109270  0.75791265     0.12400
C1314       C  0.61724720  0.46906042  0.67140367     0.61900
F1315       F  0.48849929  0.34176992  0.71863685    -0.23300
F1316       F  0.48700562  0.37519295  0.76680650    -0.20600
F1317       F  0.51304793  0.35198398  0.78472998    -0.20300
F1318       F  0.61054702  0.48286370  0.63669733    -0.20300
F1319       F  0.63534649  0.45838197  0.65539406    -0.20700
F1320       F  0.63389644  0.49170233  0.70351548    -0.23300
C1321       C  0.55559509  0.39392541  0.18947980    -0.06200
C1322       C  0.57212682  0.42473329  0.17401953    -0.00200
C1323       C  0.57650503  0.44917794  0.20270115    -0.08800
C1324       C  0.56338102  0.44179242  0.24590891    -0.06200
C1325       C  0.54616227  0.41084856  0.26111530    -0.00300
C1326       C  0.54229594  0.38639871  0.23257202    -0.08700
C1327       C  0.52270321  0.35237141  0.24615256     0.61700
H1328       H  0.55170523  0.37554327  0.16635529     0.12400
H1329       H  0.56692970  0.46027626  0.26854339     0.12400
C1330       C  0.59548098  0.48292188  0.18773350     0.61900
F1331       F  0.51659381  0.33259636  0.20994870    -0.23300
F1332       F  0.49517977  0.34647180  0.26304481    -0.20600
F1333       F  0.53740172  0.34532251  0.27855236    -0.20300
F1334       F  0.58191343  0.48810517  0.15138487    -0.20300
F1335       F  0.62416193  0.48959490  0.17536669    -0.20700
F1336       F  0.59881304  0.50328608  0.22174718    -0.23300
C1337       C  0.53429938  0.50489829  0.28503609    -0.06200
C1338       C  0.55059216  0.51951506  0.32487908    -0.00200
C1339       C  0.56346666  0.55209869  0.32929440    -0.08800
C1340       C  0.55727750  0.56804209  0.29573187    -0.06200
C1341       C  0.53878406  0.55294461  0.25759039    -0.00300
C1342       C  0.52845007  0.52093923  0.25111340    -0.08700
C1343       C  0.51060997  0.50328960  0.20946228     0.61700
H1344       H  0.52545053  0.48023770  0.28107274     0.12400
H1345       H  0.56595143  0.59262394  0.30016690     0.12400
C1346       C  0.58266400  0.56994114  0.36996598     0.61900
F1347       F  0.50467518  0.47312459  0.20867489    -0.23300
F1348       F  0.52722501  0.51830663  0.17132510    -0.20600
F1349       F  0.48300543  0.50166335  0.20826172    -0.20300
F1350       F  0.60926370  0.56945776  0.37015790    -0.20300
F1351       F  0.56659149  0.55655449  0.40914669    -0.20700
F1352       F  0.59064872  0.60079462  0.36957595    -0.23300
C1353       C  0.46259047  0.49932090  0.54188491    -0.06200
C1354       C  0.44722476  0.48423118  0.58211810    -0.00200
C1355       C  0.43630469  0.45201169  0.58647971    -0.08800
C1356       C  0.44338485  0.43709650  0.55246592    -0.06200
C1357       C  0.46205426  0.45322056  0.51509182    -0.00300
C1358       C  0.47053692  0.48464706  0.50864587    -0.08700
C1359       C  0.48972328  0.50343280  0.46870564     0.61700
H1360       H  0.46989643  0.52360302  0.53767418     0.12400
H1361       H  0.43634297  0.41289071  0.55675207     0.12400
C1362       C  0.41918553  0.43377106  0.62809323     0.61900
F1363       F  0.49424870  0.53305151  0.46777098    -0.23300
F1364       F  0.47530182  0.48859250  0.42902580    -0.20600
F1365       F  0.51796528  0.50644951  0.47094478    -0.20300
F1366       F  0.39208826  0.43308194  0.63173207    -0.20300
F1367       F  0.43683733  0.44760120  0.66600281    -0.20700
F1368       F  0.41226365  0.40327037  0.62656951    -0.23300
loop_ 
_geom_bond_atom_site_label_1 
_geom_bond_atom_site_label_2 
_geom_bond_distance 
_geom_bond_site_symmetry_2 
_ccdc_geom_bond_type 
Zr1           O2   2.437       .  S
Zr1           O3   2.438       .  S
Zr1           O4   2.456       .  S
Zr1           O7   2.457       .  S
Zr1           O9   2.376       .  S
Zr1          O10   2.379       .  S
Zr1          O11   2.420       .  S
Zr1          O12   2.412       .  S
O2           H58   0.990       .  S
O2           H66   0.991       .  S
O3           C23   1.285       .  A
O4           C25   1.286       .  A
O5          Zr15   2.435       .  S
O5           C24   1.282       .  A
O6          Zr14   2.393       .  S
O6           C25   1.274       .  A
O7           C24   1.290       .  A
O8          Zr16   2.448       .  S
O8           C23   1.287       .  A
O9          Zr14   2.380       .  S
O9          Zr16   2.356       .  S
O10         Zr15   2.370       .  S
O10         Zr16   2.378       .  S
O10          H45   0.965       .  S
O11         Zr14   2.398       .  S
O11         Zr31   2.423       .  S
O11          H48   0.966       .  S
O12         Zr15   2.393       .  S
O12         Zr31   2.423       .  S
Zr13         O38   2.433       .  S
Zr13         O32   2.426       .  S
Zr13         O40   2.463       .  S
Zr13         O28   2.515       .  S
Zr13         O19   2.429       .  S
Zr13         O20   2.414       .  S
Zr13         O21   2.376       .  S
Zr13         O22   2.405       .  S
Zr14         O33   2.440       .  S
Zr14         O26   2.444       .  S
Zr14         O27   2.392       .  S
Zr14         O20   2.406       .  S
Zr14         O21   2.388       .  S
Zr15         O17   2.437       .  S
Zr15         O39   2.431       .  S
Zr15         O41   2.402       .  S
Zr15         O19   2.403       .  S
Zr15         O22   2.386       .  S
Zr16         O42   2.434       .  S
Zr16         O43   2.436       .  S
Zr16         O18   2.439       .  S
Zr16         O19   2.394       .  S
Zr16         O20   2.407       .  S
O17          H54   0.990       .  S
O18          H49   0.990       .  S
O18          H63   0.990       .  S
O20          H46   0.965       .  S
O21         Zr31   2.369       .  S
O22         Zr31   2.356       .  S
O22          H47   0.965       .  S
C23        C1274   1.489       .  S
C24        C1290   1.506       .  S
C25        C1306   1.476       .  S
O26          H62   0.990       .  S
O27          C29   1.270       .  A
O28          C29   1.297       .  A
C29        C1357   1.509       .  S
O30         Zr31   2.436       .  S
O30          H59   0.990       .  S
Zr31         O34   2.435       .  S
Zr31         O35   2.437       .  S
Zr31         O36   2.487       .  S
O32          C37   1.285       .  A
O33          H50   0.990       .  S
O33          H65   0.990       .  S
O34          H51   0.990       .  S
O35          H55   0.990       .  S
O35          H64   0.990       .  S
O36          C37   1.294       .  A
C37        C1338   1.509       .  S
O38          H57   0.990       .  S
O38          H61   0.990       .  S
O39          H53   0.989       .  S
O39          H60   0.989       .  S
O40          C44   1.287       .  A
O41          C44   1.270       .  A
O42          H52   0.990       .  S
O43          H56   0.990       .  S
C44        C1325   1.482       .  S
Zr67         O68   2.436       .  S
Zr67         O69   2.461       .  S
Zr67         O70   2.468       .  S
Zr67         O73   2.478   1_554  S
Zr67         O75   2.380       .  S
Zr67         O76   2.374   1_554  S
Zr67         O77   2.429       .  S
Zr67         O78   2.419   1_554  S
O68         H124   0.990       .  S
O68         H132   0.990       .  S
O69          C89   1.289       .  A
O70          C91   1.291       .  A
O71         Zr81   2.422       .  S
O71          C90   1.281       .  A
O72         Zr80   2.384       .  S
O72          C91   1.274       .  A
O73          C90   1.294       .  A
O74         Zr82   2.442   1_554  S
O74          C89   1.286       .  A
O75         Zr80   2.382       .  S
O75         Zr82   2.368   1_554  S
O76         Zr81   2.370       .  S
O76         Zr82   2.371       .  S
O76         H111   0.966       .  S
O77         Zr80   2.397       .  S
O77         Zr97   2.432   1_554  S
O77         H114   0.965       .  S
O78         Zr81   2.385       .  S
O78         Zr97   2.426       .  S
Zr79        O104   2.434       .  S
Zr79         O98   2.416       .  S
Zr79        O106   2.465       .  S
Zr79         O94   2.514       .  S
Zr79         O85   2.420       .  S
Zr79         O86   2.410       .  S
Zr79         O87   2.373       .  S
Zr79         O88   2.391       .  S
Zr80         O99   2.438       .  S
Zr80         O92   2.437       .  S
Zr80         O93   2.390       .  S
Zr80         O86   2.397   1_554  S
Zr80         O87   2.384   1_554  S
Zr81         O83   2.436       .  S
Zr81        O105   2.436       .  S
Zr81        O107   2.381       .  S
Zr81         O85   2.397       .  S
Zr81         O88   2.388       .  S
Zr82        O108   2.435       .  S
Zr82        O109   2.434       .  S
Zr82         O84   2.438   1_556  S
Zr82         O85   2.399       .  S
Zr82         O86   2.402       .  S
O83         H120   0.990       .  S
O84         H115   0.990       .  S
O84         H129   0.990       .  S
O86         H112   0.966       .  S
O87         Zr97   2.361       .  S
O88         Zr97   2.353       .  S
O88         H113   0.965       .  S
C89        C1210   1.504       .  S
C90        C1226   1.502       .  S
C91        C1322   1.471       .  S
O92         H128   0.990       .  S
O93          C95   1.270   1_554  A
O94          C95   1.297       .  A
C95        C1258   1.505   1_556  S
O96         Zr97   2.437       .  S
O96         H125   0.990   1_556  S
Zr97        O100   2.435       .  S
Zr97        O101   2.437       .  S
Zr97        O102   2.512       .  S
O98         C103   1.283       .  A
O99         H116   0.989       .  S
O99         H131   0.990       .  S
O100        H117   0.990       .  S
O101        H121   0.990       .  S
O101        H130   0.990       .  S
O102        C103   1.299       .  A
C103       C1242   1.520       .  S
O104        H123   0.990       .  S
O104        H127   0.990       .  S
O105        H119   0.990       .  S
O105        H126   0.990       .  S
O106        C110   1.292       .  A
O107        C110   1.276       .  A
O108        H118   0.990       .  S
O109        H122   0.990       .  S
C110       C1309   1.467       .  S
Zr133       O134   2.437       .  S
Zr133       O135   2.456       .  S
Zr133       O136   2.466       .  S
Zr133       O139   2.478       .  S
Zr133       O141   2.382       .  S
Zr133       O142   2.376       .  S
Zr133       O143   2.425       .  S
Zr133       O144   2.414       .  S
O134        H190   0.990       .  S
O134        H198   0.990       .  S
O135        C155   1.288       .  A
O136        C157   1.291       .  A
O137       Zr147   2.425       .  S
O137        C156   1.282       .  A
O138       Zr146   2.354       .  S
O138        C157   1.269       .  A
O139        C156   1.296       .  A
O140       Zr148   2.457       .  S
O140        C155   1.288       .  A
O141       Zr146   2.386       .  S
O141       Zr148   2.363       .  S
O142       Zr147   2.375       .  S
O142       Zr148   2.369       .  S
O142        H177   0.966       .  S
O143       Zr146   2.398       .  S
O143       Zr163   2.427       .  S
O143        H180   0.966       .  S
O144       Zr147   2.383       .  S
O144       Zr163   2.416       .  S
Zr145       O170   2.435       .  S
Zr145       O164   2.420       .  S
Zr145       O172   2.452       .  S
Zr145       O160   2.511       .  S
Zr145       O151   2.429       .  S
Zr145       O152   2.412       .  S
Zr145       O153   2.371       .  S
Zr145       O154   2.389       .  S
Zr146       O165   2.437       .  S
Zr146       O158   2.434       .  S
Zr146       O159   2.390       .  S
Zr146       O152   2.391       .  S
Zr146       O153   2.377       .  S
Zr147       O149   2.435       .  S
Zr147       O171   2.437       .  S
Zr147       O173   2.392       .  S
Zr147       O151   2.397       .  S
Zr147       O154   2.371       .  S
Zr148       O174   2.435       .  S
Zr148       O175   2.435       .  S
Zr148       O150   2.438       .  S
Zr148       O151   2.401       .  S
Zr148       O152   2.411       .  S
O149        H186   0.990       .  S
O150        H181   0.989       .  S
O150        H195   0.990       .  S
O152        H178   0.966       .  S
O153       Zr163   2.366       .  S
O154       Zr163   2.352       .  S
O154        H179   0.962       .  S
C155       C1146   1.497       .  S
C156       C1165   1.509       .  S
C157       C1197   1.458       .  S
O158        H194   0.990       .  S
O159        C161   1.267       .  A
O160        C161   1.293       .  A
C161       C1341   1.514       .  S
O162       Zr163   2.436       .  S
O162        H191   0.990       .  S
Zr163       O166   2.433       .  S
Zr163       O167   2.438       .  S
Zr163       O168   2.501       .  S
O164        C169   1.285       .  A
O165        H182   0.990       .  S
O165        H197   0.990       .  S
O166        H183   0.990       .  S
O167        H187   0.990       .  S
O167        H196   0.990       .  S
O168        C169   1.296       .  A
C169       C1261   1.521       .  S
O170        H189   0.990       .  S
O170        H193   0.990       .  S
O171        H185   0.990       .  S
O171        H192   0.990       .  S
O172        C176   1.290       .  A
O173        C176   1.277       .  A
O174        H184   0.990       .  S
O175        H188   0.990       .  S
C176       C1178   1.459       .  S
Zr199       O200   2.436       .  S
Zr199       O201   2.437       .  S
Zr199       O202   2.442       .  S
Zr199       O205   2.464       .  S
Zr199       O207   2.384       .  S
Zr199       O208   2.381       .  S
Zr199       O209   2.429       .  S
Zr199       O210   2.411       .  S
O200        H256   0.990       .  S
O200        H264   0.990       .  S
O201        C221   1.285       .  A
O202        C223   1.283       .  A
O203       Zr213   2.430       .  S
O203        C222   1.282       .  A
O204       Zr212   2.405       .  S
O204        C223   1.272       .  A
O205        C222   1.291       .  A
O206       Zr214   2.461       .  S
O206        C221   1.290       .  A
O207       Zr212   2.378       .  S
O207       Zr214   2.352       .  S
O208       Zr213   2.366       .  S
O208       Zr214   2.378       .  S
O208        H243   0.966       .  S
O209       Zr212   2.402       .  S
O209       Zr229   2.426       .  S
O209        H246   0.966       .  S
O210       Zr213   2.385       .  S
O210       Zr229   2.427       .  S
Zr211       O236   2.434       .  S
Zr211       O230   2.414       .  S
Zr211       O238   2.462       .  S
Zr211       O226   2.511       .  S
Zr211       O217   2.425       .  S
Zr211       O218   2.414       .  S
Zr211       O219   2.371       .  S
Zr211       O220   2.386       .  S
Zr212       O231   2.437       .  S
Zr212       O224   2.437       .  S
Zr212       O225   2.409       .  S
Zr212       O218   2.396       .  S
Zr212       O219   2.386       .  S
Zr213       O215   2.434       .  S
Zr213       O237   2.436       .  S
Zr213       O239   2.385       .  S
Zr213       O217   2.399       .  S
Zr213       O220   2.372       .  S
Zr214       O240   2.435       .  S
Zr214       O241   2.438       .  S
Zr214       O216   2.438       .  S
Zr214       O217   2.397       .  S
Zr214       O218   2.418       .  S
O215        H252   0.990       .  S
O216        H247   0.990       .  S
O216        H261   0.990       .  S
O218        H244   0.966       .  S
O219       Zr229   2.363       .  S
O220       Zr229   2.343       .  S
O220        H245   0.960       .  S
C221       C1114   1.497       .  S
C222       C1130   1.506       .  S
C223       C1181   1.460       .  S
O224        H260   0.991       .  S
O225        C227   1.275       .  A
O226        C227   1.296       .  A
C227       C1245   1.519       .  S
O228       Zr229   2.438       .  S
O228        H257   0.990       .  S
Zr229       O232   2.435       .  S
Zr229       O233   2.437       .  S
Zr229       O234   2.508       .  S
O230        C235   1.283       .  A
O231        H248   0.990       .  S
O231        H263   0.990       .  S
O232        H249   0.990       .  S
O233        H253   0.990       .  S
O233        H262   0.990       .  S
O234        C235   1.298       .  A
C235       C1354   1.513       .  S
O236        H255   0.990       .  S
O236        H259   0.990       .  S
O237        H251   0.990       .  S
O237        H258   0.990       .  S
O238        C242   1.292       .  A
O239        C242   1.277       .  A
O240        H250   0.990       .  S
O241        H254   0.990       .  S
C242       C1194   1.461       .  S
Zr265       O266   2.434       .  S
Zr265       O267   2.412       .  S
Zr265       O268   2.509       .  S
Zr265       O271   2.459       .  S
Zr265       O273   2.369       .  S
Zr265       O274   2.383       .  S
Zr265       O275   2.406       .  S
Zr265       O276   2.426       .  S
O266        H322   0.990       .  S
O266        H330   0.990       .  S
O267        C287   1.283       .  A
O268        C289   1.298       .  A
O269       Zr279   2.395       .  S
O269        C288   1.277       .  A
O270       Zr278   2.394       .  S
O270        C289   1.272       .  A
O271        C288   1.291       .  A
O272       Zr280   2.513       .  S
O272        C287   1.298       .  A
O273       Zr278   2.384       .  S
O273       Zr280   2.368       .  S
O274       Zr279   2.375       .  S
O274       Zr280   2.342       .  S
O274        H309   0.961       .  S
O275       Zr278   2.383       .  S
O275       Zr295   2.413       .  S
O275        H312   0.966       .  S
O276       Zr279   2.400       .  S
O276       Zr295   2.394       .  S
Zr277       O302   2.438       .  S
Zr277       O296   2.460       .  S
Zr277       O304   2.488       .  S
Zr277       O292   2.468       .  S
Zr277       O283   2.416       .  S
Zr277       O284   2.430       .  S
Zr277       O285   2.384       .  S
Zr277       O286   2.383       .  S
Zr278       O297   2.438       .  S
Zr278       O290   2.436       .  S
Zr278       O291   2.377       .  S
Zr278       O284   2.398       .  S
Zr278       O285   2.379       .  S
Zr279       O281   2.434       .  S
Zr279       O303   2.438       .  S
Zr279       O305   2.423       .  S
Zr279       O283   2.385       .  S
Zr279       O286   2.376       .  S
Zr280       O306   2.436       .  S
Zr280       O307   2.435       .  S
Zr280       O282   2.436       .  S
Zr280       O283   2.418       .  S
Zr280       O284   2.432       .  S
O281        H318   0.990       .  S
O282        H313   0.990       .  S
O282        H327   0.990       .  S
O284        H310   0.966       .  S
O285       Zr295   2.373       .  S
O286       Zr295   2.378       .  S
O286        H311   0.966       .  S
C287       C1053   1.524       .  S
C288       C1085   1.462       .  S
C289       C1098   1.500       .  S
O290        H326   0.990       .  S
O291        C293   1.273   1_554  A
O292        C293   1.290   1_554  A
C293       C1066   1.466       .  S
O294       Zr295   2.436       .  S
O294        H323   0.990       .  S
Zr295       O298   2.436       .  S
Zr295       O299   2.438       .  S
Zr295       O300   2.443       .  S
O296        C301   1.290       .  A
O297        H314   0.990       .  S
O297        H329   0.990       .  S
O298        H315   0.990       .  S
O299        H319   0.990       .  S
O299        H328   0.989       .  S
O300        C301   1.286       .  A
C301       C1034   1.500       .  S
O302        H321   0.990       .  S
O302        H325   0.990       .  S
O303        H317   0.990       .  S
O303        H324   0.990       .  S
O304        C308   1.297       .  A
O305        C308   1.280       .  A
O306        H316   0.990       .  S
O307        H320   0.990       .  S
C308       C1162   1.516       .  S
Zr331       O332   2.433       .  S
Zr331       O333   2.425       .  S
Zr331       O334   2.525       .  S
Zr331       O337   2.455       .  S
Zr331       O339   2.369       .  S
Zr331       O340   2.406       .  S
Zr331       O341   2.416       .  S
Zr331       O342   2.428       .  S
O332        H388   0.990       .  S
O332        H396   0.990       .  S
O333        C353   1.285       .  A
O334        C355   1.298       .  A
O335       Zr345   2.404       .  S
O335        C354   1.272       .  A
O336       Zr344   2.407       .  S
O336        C355   1.268       .  A
O337        C354   1.288       .  A
O338       Zr346   2.497       .  S
O338        C353   1.296       .  A
O339       Zr344   2.393       .  S
O339       Zr346   2.370       .  S
O340       Zr345   2.392       .  S
O340       Zr346   2.354       .  S
O340        H375   0.963       .  S
O341       Zr344   2.413       .  S
O341       Zr361   2.421       .  S
O341        H378   0.966       .  S
O342       Zr345   2.405       .  S
O342       Zr361   2.382       .  S
Zr343       O368   2.438       .  S
Zr343       O362   2.432       .  S
Zr343       O370   2.452       .  S
Zr343       O358   2.444       .  S
Zr343       O349   2.411       .  S
Zr343       O350   2.415       .  S
Zr343       O351   2.375       .  S
Zr343       O352   2.384       .  S
Zr344       O363   2.444       .  S
Zr344       O356   2.438       .  S
Zr344       O357   2.403       .  S
Zr344       O350   2.403       .  S
Zr344       O351   2.381       .  S
Zr345       O347   2.437       .  S
Zr345       O369   2.443       .  S
Zr345       O371   2.446       .  S
Zr345       O349   2.388       .  S
Zr345       O352   2.377       .  S
Zr346       O372   2.435       .  S
Zr346       O373   2.436       .  S
Zr346       O348   2.435       .  S
Zr346       O349   2.416       .  S
Zr346       O350   2.426       .  S
O347        H384   0.990       .  S
O348        H379   0.990       .  S
O348        H393   0.989       .  S
O350        H376   0.966       .  S
O351       Zr361   2.353       .  S
O352       Zr361   2.381       .  S
O352        H377   0.966       .  S
C353       C1002   1.514       .  S
C354       C1069   1.472       .  S
C355       C1018   1.507       .  S
O356        H392   0.990       .  S
O357        C359   1.273       .  A
O358        C359   1.284       .  A
C359       C1082   1.460       .  S
O360       Zr361   2.435       .  S
O360        H389   0.990       .  S
Zr361       O364   2.435       .  S
Zr361       O365   2.438       .  S
Zr361       O366   2.448       .  S
O362        C367   1.281       .  A
O363        H380   0.990       .  S
O363        H395   0.990       .  S
O364        H381   0.990       .  S
O365        H385   0.990       .  S
O365        H394   0.990       .  S
O366        C367   1.289       .  A
C367        C989   1.513       .  S
O368        H387   0.990       .  S
O368        H391   0.990       .  S
O369        H383   0.990       .  S
O369        H390   0.988       .  S
O370        C374   1.288       .  A
O371        C374   1.285       .  A
O372        H382   0.990       .  S
O373        H386   0.990       .  S
C374       C1133   1.504       .  S
Zr397       O398   2.436       .  S
Zr397       O399   2.383       .  S
Zr397       O400   2.549       .  S
Zr397       O403   2.487       .  S
Zr397       O405   2.362       .  S
Zr397       O406   2.393       .  S
Zr397       O407   2.399       .  S
Zr397       O408   2.416       .  S
O398        H454   0.990       .  S
O398        H462   0.990       .  S
O399        C419   1.271       .  A
O400        C421   1.308       .  A
O401       Zr411   2.378       .  S
O401        C420   1.276       .  A
O402       Zr410   2.359       .  S
O402        C421   1.270       .  A
O403        C420   1.297       .  A
O404       Zr412   2.557       .  S
O404        C419   1.309       .  A
O405       Zr410   2.380       .  S
O405       Zr412   2.354       .  S
O406       Zr411   2.391       .  S
O406       Zr412   2.343       .  S
O406        H441   0.964       .  S
O407       Zr410   2.394       .  S
O407       Zr427   2.410       .  S
O407        H444   0.967       .  S
O408       Zr411   2.403       .  S
O408       Zr427   2.383       .  S
Zr409       O434   2.436       .  S
Zr409       O428   2.465       .  S
Zr409       O436   2.460       .  S
Zr409       O424   2.456       .  S
Zr409       O415   2.431       .  S
Zr409       O416   2.430       .  S
Zr409       O417   2.374       .  S
Zr409       O418   2.381       .  S
Zr410       O429   2.438       .  S
Zr410       O422   2.436       .  S
Zr410       O423   2.379       .  S
Zr410       O416   2.384       .  S
Zr410       O417   2.368       .  S
Zr411       O413   2.435       .  S
Zr411       O435   2.438       .  S
Zr411       O437   2.431       .  S
Zr411       O415   2.378       .  S
Zr411       O418   2.376       .  S
Zr412       O438   2.436       .  S
Zr412       O439   2.436       .  S
Zr412       O414   2.437       .  S
Zr412       O415   2.437       .  S
Zr412       O416   2.449       .  S
O413        H450   0.990       .  S
O414        H445   0.990       .  S
O414        H459   0.990       .  S
O416        H442   0.966       .  S
O417       Zr427   2.368       .  S
O418       Zr427   2.378       .  S
O418        H443   0.966       .  S
C419       C1021   1.532       .  S
C420        C954   1.475       .  S
C421       C1050   1.500       .  S
O422        H458   0.990       .  S
O423        C425   1.273       .  A
O424        C425   1.287       .  A
C425        C970   1.462       .  S
O426       Zr427   2.434       .  S
O426        H455   0.990       .  S
Zr427       O430   2.433       .  S
Zr427       O431   2.436       .  S
Zr427       O432   2.436       .  S
O428        C433   1.290       .  A
O429        H446   0.990       .  S
O429        H461   0.990       .  S
O430        H447   0.988       .  S
O431        H451   0.990       .  S
O431        H460   0.989       .  S
O432        C433   1.284       .  A
C433        C941   1.506       .  S
O434        H453   0.990       .  S
O434        H457   0.990       .  S
O435        H449   0.990       .  S
O435        H456   0.989       .  S
O436        C440   1.290       .  A
O437        C440   1.283       .  A
O438        H448   0.990       .  S
O439        H452   0.990       .  S
C440       C1293   1.499       .  S
Zr463       O464   2.435       .  S
Zr463       O465   2.423       .  S
Zr463       O466   2.520       .  S
Zr463       O469   2.448   1_556  S
Zr463       O471   2.376       .  S
Zr463       O472   2.409       .  S
Zr463       O473   2.407       .  S
Zr463       O474   2.426       .  S
O464        H520   0.990   1_556  S
O464        H528   0.990       .  S
O465        C485   1.282   1_556  A
O466        C487   1.296       .  A
O467       Zr477   2.404   1_554  S
O467        C486   1.272       .  A
O468       Zr476   2.388       .  S
O468        C487   1.267       .  A
O469        C486   1.286       .  A
O470       Zr478   2.513       .  S
O470        C485   1.300   1_556  A
O471       Zr476   2.384       .  S
O471       Zr478   2.372       .  S
O472       Zr477   2.395       .  S
O472       Zr478   2.350       .  S
O472        H507   0.965   1_556  S
O473       Zr476   2.410       .  S
O473       Zr493   2.403       .  S
O473        H510   0.966       .  S
O474       Zr477   2.399       .  S
O474       Zr493   2.383       .  S
Zr475       O500   2.437       .  S
Zr475       O494   2.477       .  S
Zr475       O502   2.458       .  S
Zr475       O490   2.457       .  S
Zr475       O481   2.422       .  S
Zr475       O482   2.435       .  S
Zr475       O483   2.375       .  S
Zr475       O484   2.380       .  S
Zr476       O495   2.445       .  S
Zr476       O488   2.434       .  S
Zr476       O489   2.392       .  S
Zr476       O482   2.392       .  S
Zr476       O483   2.386       .  S
Zr477       O479   2.437       .  S
Zr477       O501   2.434   1_556  S
Zr477       O503   2.436       .  S
Zr477       O481   2.383       .  S
Zr477       O484   2.380       .  S
Zr478       O504   2.435       .  S
Zr478       O505   2.436       .  S
Zr478       O480   2.436       .  S
Zr478       O481   2.416       .  S
Zr478       O482   2.441       .  S
O479        H516   0.990   1_556  S
O480        H511   0.989       .  S
O480        H525   0.990       .  S
O482        H508   0.966       .  S
O483       Zr493   2.364       .  S
O484       Zr493   2.379       .  S
O484        H509   0.966       .  S
C485       C1101   1.524       .  S
C486        C973   1.470       .  S
C487       C1005   1.511       .  S
O488        H524   0.990       .  S
O489        C491   1.275       .  A
O490        C491   1.288       .  A
C491        C957   1.466       .  S
O492       Zr493   2.435       .  S
O492        H521   0.990       .  S
Zr493       O496   2.435       .  S
Zr493       O497   2.439       .  S
Zr493       O498   2.433       .  S
O494        C499   1.293       .  A
O495        H512   0.990       .  S
O495        H527   0.990       .  S
O496        H513   0.990       .  S
O497        H517   0.990       .  S
O497        H526   0.990       .  S
O498        C499   1.281       .  A
C499        C922   1.522       .  S
O500        H519   0.990       .  S
O500        H523   0.990       .  S
O501        H515   0.989       .  S
O501        H522   0.989       .  S
O502        C506   1.290       .  A
O503        C506   1.284       .  A
O504        H514   0.990       .  S
O505        H518   0.990       .  S
C506       C1229   1.495       .  S
Zr529       O530   2.435       .  S
Zr529       O531   2.399       .  S
Zr529       O532   2.532       .  S
Zr529       O535   2.481   1_554  S
Zr529       O537   2.371       .  S
Zr529       O538   2.394       .  S
Zr529       O539   2.408       .  S
Zr529       O540   2.420       .  S
O530        H586   0.990       .  S
O530        H594   0.990       .  S
O531        C551   1.276       .  A
O532        C553   1.301       .  A
O533       Zr543   2.395   1_556  S
O533        C552   1.279       .  A
O534       Zr542   2.397       .  S
O534        C553   1.269       .  A
O535        C552   1.295       .  A
O536       Zr544   2.514       .  S
O536        C551   1.300       .  A
O537       Zr542   2.386       .  S
O537       Zr544   2.363       .  S
O538       Zr543   2.389       .  S
O538       Zr544   2.352       .  S
O538        H573   0.964       .  S
O539       Zr542   2.411       .  S
O539       Zr559   2.413       .  S
O539        H576   0.966       .  S
O540       Zr543   2.401       .  S
O540       Zr559   2.386       .  S
Zr541       O566   2.436       .  S
Zr541       O560   2.480       .  S
Zr541       O568   2.461       .  S
Zr541       O556   2.466       .  S
Zr541       O547   2.421       .  S
Zr541       O548   2.439       .  S
Zr541       O549   2.374       .  S
Zr541       O550   2.386       .  S
Zr542       O561   2.444       .  S
Zr542       O554   2.438       .  S
Zr542       O555   2.394       .  S
Zr542       O548   2.402       .  S
Zr542       O549   2.380       .  S
Zr543       O545   2.435       .  S
Zr543       O567   2.438       .  S
Zr543       O569   2.441       .  S
Zr543       O547   2.378       .  S
Zr543       O550   2.374       .  S
Zr544       O570   2.436       .  S
Zr544       O571   2.435       .  S
Zr544       O546   2.438       .  S
Zr544       O547   2.423       .  S
Zr544       O548   2.439       .  S
O545        H582   0.990       .  S
O546        H577   0.990       .  S
O546        H591   0.990       .  S
O548        H574   0.966       .  S
O549       Zr559   2.351       .  S
O550       Zr559   2.385       .  S
O550        H575   0.966       .  S
C551        C909   1.517   1_554  S
C552        C858   1.475       .  S
C553        C893   1.514       .  S
O554        H590   0.991       .  S
O555        C557   1.268       .  A
O556        C557   1.286       .  A
C557        C874   1.475       .  S
O558       Zr559   2.435       .  S
O558        H587   0.990       .  S
Zr559       O562   2.436       .  S
Zr559       O563   2.436       .  S
Zr559       O564   2.430       .  S
O560        C565   1.292       .  A
O561        H578   0.990       .  S
O561        H593   0.990       .  S
O562        H579   0.990       .  S
O563        H583   0.990       .  S
O563        H592   0.990       .  S
O564        C565   1.286       .  A
C565        C938   1.516       .  S
O566        H585   0.990       .  S
O566        H589   0.990       .  S
O567        H581   0.990   1_554  S
O567        H588   0.990   1_554  S
O568        C572   1.290       .  A
O569        C572   1.285       .  A
O570        H580   0.990       .  S
O571        H584   0.990       .  S
C572       C1213   1.494       .  S
Zr595       O596   2.434       .  S
Zr595       O597   2.406       .  S
Zr595       O598   2.511       .  S
Zr595       O601   2.469       .  S
Zr595       O603   2.374       .  S
Zr595       O604   2.388       .  S
Zr595       O605   2.409       .  S
Zr595       O606   2.423       .  S
O596        H652   0.990       .  S
O596        H660   0.990       .  S
O597        C617   1.281       .  A
O598        C619   1.297       .  A
O599       Zr609   2.405       .  S
O599        C618   1.279       .  A
O600       Zr608   2.399       .  S
O600        C619   1.273       .  A
O601        C618   1.293       .  A
O602       Zr610   2.516       .  S
O602        C617   1.300       .  A
O603       Zr608   2.385       .  S
O603       Zr610   2.367       .  S
O604       Zr609   2.375       .  S
O604       Zr610   2.346       .  S
O604        H639   0.962       .  S
O605       Zr608   2.400       .  S
O605       Zr625   2.420       .  S
O605        H642   0.967       .  S
O606       Zr609   2.390       .  S
O606       Zr625   2.392       .  S
Zr607       O632   2.437       .  S
Zr607       O626   2.466       .  S
Zr607       O634   2.474       .  S
Zr607       O622   2.479       .  S
Zr607       O613   2.422       .  S
Zr607       O614   2.435       .  S
Zr607       O615   2.379       .  S
Zr607       O616   2.392       .  S
Zr608       O627   2.438       .  S
Zr608       O620   2.436       .  S
Zr608       O621   2.395       .  S
Zr608       O614   2.403       .  S
Zr608       O615   2.381       .  S
Zr609       O611   2.434       .  S
Zr609       O633   2.439       .  S
Zr609       O635   2.410       .  S
Zr609       O613   2.392       .  S
Zr609       O616   2.380       .  S
Zr610       O636   2.437       .  S
Zr610       O637   2.436       .  S
Zr610       O612   2.436       .  S
Zr610       O613   2.416       .  S
Zr610       O614   2.435       .  S
O611        H648   0.990       .  S
O612        H643   0.990       .  S
O612        H657   0.990       .  S
O614        H640   0.967       .  S
O615       Zr625   2.352       .  S
O616       Zr625   2.381       .  S
O616        H641   0.966       .  S
C617        C842   1.514       .  S
C618        C877   1.472       .  S
C619        C826   1.511       .  S
O620        H656   0.990       .  S
O621        C623   1.268       .  A
O622        C623   1.287       .  A
C623        C861   1.474       .  S
O624       Zr625   2.435       .  S
O624        H653   0.990       .  S
Zr625       O628   2.435       .  S
Zr625       O629   2.440       .  S
Zr625       O630   2.438       .  S
O626        C631   1.289       .  A
O627        H644   0.991       .  S
O627        H659   0.990       .  S
O628        H645   0.990       .  S
O629        H649   0.990       .  S
O629        H658   0.989       .  S
O630        C631   1.287       .  A
C631        C925   1.507       .  S
O632        H651   0.990       .  S
O632        H655   0.990       .  S
O633        H647   0.990       .  S
O633        H654   0.990       .  S
O634        C638   1.291       .  A
O635        C638   1.281       .  A
O636        H646   0.990       .  S
O637        H650   0.990       .  S
C638       C1277   1.488       .  S
Zr661       O662   2.434       .  S
Zr661       O663   2.433       .  S
Zr661       O664   2.524       .  S
Zr661       O667   2.471       .  S
Zr661       O669   2.374       .  S
Zr661       O670   2.393       .  S
Zr661       O671   2.408       .  S
Zr661       O672   2.424       .  S
O662        H718   0.990       .  S
O662        H726   0.990       .  S
O663        C683   1.282       .  A
O664        C685   1.298       .  A
O665       Zr675   2.365       .  S
O665        C684   1.272       .  A
O666       Zr674   2.388       .  S
O666        C685   1.268       .  A
O667        C684   1.293       .  A
O668       Zr676   2.527       .  S
O668        C683   1.302       .  A
O669       Zr674   2.391       .  S
O669       Zr676   2.364       .  S
O670       Zr675   2.396       .  S
O670       Zr676   2.357       .  S
O670        H705   0.966       .  S
O671       Zr674   2.416       .  S
O671       Zr691   2.403       .  S
O671        H708   0.966       .  S
O672       Zr675   2.394       .  S
O672       Zr691   2.390       .  S
Zr673       O698   2.436       .  S
Zr673       O692   2.461       .  S
Zr673       O700   2.491       .  S
Zr673       O688   2.479       .  S
Zr673       O679   2.416       .  S
Zr673       O680   2.440       .  S
Zr673       O681   2.376       .  S
Zr673       O682   2.388       .  S
Zr674       O693   2.446       .  S
Zr674       O686   2.437       .  S
Zr674       O687   2.392       .  S
Zr674       O680   2.403       .  S
Zr674       O681   2.377       .  S
Zr675       O677   2.434       .  S
Zr675       O699   2.440       .  S
Zr675       O701   2.423       .  S
Zr675       O679   2.378       .  S
Zr675       O682   2.369       .  S
Zr676       O702   2.434       .  S
Zr676       O703   2.439       .  S
Zr676       O678   2.438       .  S
Zr676       O679   2.429       .  S
Zr676       O680   2.444       .  S
O677        H714   0.989       .  S
O678        H709   0.990       .  S
O678        H723   0.990       .  S
O680        H706   0.966       .  S
O681       Zr691   2.349       .  S
O682       Zr691   2.390       .  S
O682        H707   0.966       .  S
C683        C890   1.538       .  S
C684        C813   1.462       .  S
C685        C845   1.514       .  S
O686        H722   0.990       .  S
O687        C689   1.271       .  A
O688        C689   1.288       .  A
C689        C794   1.482       .  S
O690       Zr691   2.436       .  S
O690        H719   0.990       .  S
Zr691       O694   2.438       .  S
Zr691       O695   2.437       .  S
Zr691       O696   2.434       .  S
O692        C697   1.290       .  A
O693        H710   0.990       .  S
O693        H725   0.990       .  S
O694        H711   0.990       .  S
O695        H715   0.990       .  S
O695        H724   0.988       .  S
O696        C697   1.284       .  A
C697        C986   1.497       .  S
O698        H717   0.990       .  S
O698        H721   0.990       .  S
O699        H713   0.989       .  S
O699        H720   0.990       .  S
O700        C704   1.296       .  A
O701        C704   1.281       .  A
O702        H712   0.990       .  S
O703        H716   0.990       .  S
C704       C1149   1.513       .  S
Zr727       O728   2.434       .  S
Zr727       O729   2.430       .  S
Zr727       O730   2.517       .  S
Zr727       O733   2.481       .  S
Zr727       O735   2.374       .  S
Zr727       O736   2.388       .  S
Zr727       O737   2.420       .  S
Zr727       O738   2.423       .  S
O728        H784   0.990       .  S
O728        H792   0.990       .  S
O729        C749   1.283       .  A
O730        C751   1.295       .  A
O731       Zr741   2.362       .  S
O731        C750   1.273       .  A
O732       Zr740   2.403       .  S
O732        C751   1.267       .  A
O733        C750   1.296       .  A
O734       Zr742   2.514       .  S
O734        C749   1.300       .  A
O735       Zr740   2.393       .  S
O735       Zr742   2.360       .  S
O736       Zr741   2.387       .  S
O736       Zr742   2.354       .  S
O736        H771   0.965       .  S
O737       Zr740   2.407       .  S
O737       Zr757   2.413       .  S
O737        H774   0.966       .  S
O738       Zr741   2.392       .  S
O738       Zr757   2.394       .  S
Zr739       O764   2.437       .  S
Zr739       O758   2.461       .  S
Zr739       O766   2.475       .  S
Zr739       O754   2.456   1_556  S
Zr739       O745   2.413       .  S
Zr739       O746   2.439       .  S
Zr739       O747   2.383       .  S
Zr739       O748   2.384       .  S
Zr740       O759   2.443   1_556  S
Zr740       O752   2.437       .  S
Zr740       O753   2.402   1_556  S
Zr740       O746   2.407       .  S
Zr740       O747   2.376       .  S
Zr741       O743   2.436       .  S
Zr741       O765   2.438       .  S
Zr741       O767   2.416       .  S
Zr741       O745   2.381       .  S
Zr741       O748   2.365       .  S
Zr742       O768   2.435       .  S
Zr742       O769   2.436       .  S
Zr742       O744   2.438       .  S
Zr742       O745   2.418       .  S
Zr742       O746   2.440       .  S
O743        H780   0.990       .  S
O744        H775   0.990       .  S
O744        H789   0.990       .  S
O746        H772   0.966       .  S
O747       Zr757   2.351       .  S
O748       Zr757   2.383       .  S
O748        H773   0.966       .  S
C749        C829   1.523       .  S
C750        C797   1.466       .  S
C751        C906   1.501       .  S
O752        H788   0.989   1_556  S
O753        C755   1.273       .  A
O754        C755   1.284       .  A
C755        C810   1.476       .  S
O756       Zr757   2.436       .  S
O756        H785   0.990       .  S
Zr757       O760   2.436       .  S
Zr757       O761   2.436       .  S
Zr757       O762   2.441       .  S
O758        C763   1.290       .  A
O759        H776   0.991       .  S
O759        H791   0.990       .  S
O760        H777   0.990       .  S
O761        H781   0.989       .  S
O761        H790   0.990       .  S
O762        C763   1.286       .  A
C763       C1037   1.491       .  S
O764        H783   0.990       .  S
O764        H787   0.990   1_556  S
O765        H779   0.990       .  S
O765        H786   0.990       .  S
O766        C770   1.292       .  A
O767        C770   1.280       .  A
O768        H778   0.990       .  S
O769        H782   0.990       .  S
C770       C1117   1.491       .  S
C793        C794   1.413       .  A
C793        C798   1.403       .  A
C793        H800   1.081       .  S
C794        C795   1.413       .  A
C795        C796   1.402       .  A
C795        C802   1.518       .  S
C796        C797   1.408       .  A
C796        H801   1.084       .  S
C797        C798   1.410       .  A
C798        C799   1.519       .  S
C799        F803   1.383       .  S
C799        F804   1.381       .  S
C799        F805   1.385       .  S
C802        F806   1.383       .  S
C802        F807   1.382       .  S
C802        F808   1.385       .  S
C809        C810   1.412       .  A
C809        C814   1.405       .  A
C809        H816   1.083       .  S
C810        C811   1.415       .  A
C811        C812   1.401       .  A
C811        C818   1.520       .  S
C812        C813   1.404       .  A
C812        H817   1.084       .  S
C813        C814   1.406       .  A
C814        C815   1.515       .  S
C815        F819   1.385       .  S
C815        F820   1.383       .  S
C815        F821   1.383       .  S
C818        F822   1.382       .  S
C818        F823   1.383       .  S
C818        F824   1.385       .  S
C825        C826   1.403   1_565  A
C825        C830   1.419       .  A
C825        H832   1.083   1_565  S
C826        C827   1.427       .  A
C827        C828   1.417   1_545  A
C827        C834   1.517       .  S
C828        C829   1.406       .  A
C828        H833   1.084       .  S
C829        C830   1.434       .  A
C830        C831   1.515       .  S
C831        F835   1.385       .  S
C831        F836   1.382       .  S
C831        F837   1.378       .  S
C834        F838   1.381       .  S
C834        F839   1.383       .  S
C834        F840   1.384       .  S
C841        C842   1.417       .  A
C841        C846   1.418       .  A
C841        H848   1.082       .  S
C842        C843   1.417       .  A
C843        C844   1.417   1_545  A
C843        C850   1.518       .  S
C844        C845   1.417       .  A
C844        H849   1.082       .  S
C845        C846   1.419   1_565  A
C846        C847   1.519       .  S
C847        F851   1.385       .  S
C847        F852   1.383       .  S
C847        F853   1.383   1_545  S
C850        F854   1.382       .  S
C850        F855   1.384       .  S
C850        F856   1.385   1_545  S
C857        C858   1.405       .  A
C857        C862   1.409       .  A
C857        H864   1.083       .  S
C858        C859   1.414       .  A
C859        C860   1.407       .  A
C859        C866   1.515       .  S
C860        C861   1.402       .  A
C860        H865   1.083       .  S
C861        C862   1.418       .  A
C862        C863   1.519       .  S
C863        F867   1.385       .  S
C863        F868   1.382       .  S
C863        F869   1.383       .  S
C866        F870   1.381       .  S
C866        F871   1.382       .  S
C866        F872   1.385       .  S
C873        C874   1.396       .  A
C873        C878   1.399       .  A
C873        H880   1.085       .  S
C874        C875   1.423       .  A
C875        C876   1.410       .  A
C875        C882   1.522       .  S
C876        C877   1.402       .  A
C876        H881   1.083       .  S
C877        C878   1.421       .  A
C878        C879   1.516       .  S
C879        F883   1.384       .  S
C879        F884   1.383       .  S
C879        F885   1.377       .  S
C882        F886   1.384       .  S
C882        F887   1.382       .  S
C882        F888   1.384       .  S
C889        C890   1.412       .  A
C889        C894   1.426   1_565  A
C889        H896   1.084       .  S
C890        C891   1.440       .  A
C891        C892   1.418   1_565  A
C891        C898   1.515       .  S
C892        C893   1.398       .  A
C892        H897   1.083       .  S
C893        C894   1.428       .  A
C894        C895   1.517       .  S
C895        F899   1.384   1_545  S
C895        F900   1.382       .  S
C895        F901   1.383       .  S
C898        F902   1.383       .  S
C898        F903   1.374       .  S
C898        F904   1.385       .  S
C905        C906   1.400       .  A
C905        C910   1.414   1_565  A
C905        H912   1.081       .  S
C906        C907   1.419   1_565  A
C907        C908   1.421       .  A
C907        C914   1.514       .  S
C908        C909   1.410       .  A
C908        H913   1.082       .  S
C909        C910   1.435       .  A
C910        C911   1.527       .  S
C911        F915   1.384   1_545  S
C911        F916   1.384   1_556  S
C911        F917   1.383       .  S
C914        F918   1.382   1_545  S
C914        F919   1.383       .  S
C914        F920   1.385       .  S
C921        C922   1.416       .  A
C921        C926   1.423       .  A
C921        H928   1.082       .  S
C922        C923   1.434       .  A
C923        C924   1.408       .  A
C923        C930   1.524       .  S
C924        C925   1.401       .  A
C924        H929   1.082       .  S
C925        C926   1.421       .  A
C926        C927   1.517       .  S
C927        F931   1.385       .  S
C927        F932   1.382       .  S
C927        F933   1.384       .  S
C930        F934   1.383       .  S
C930        F935   1.381       .  S
C930        F936   1.386       .  S
C937        C938   1.410       .  A
C937        C942   1.407       .  A
C937        H944   1.082       .  S
C938        C939   1.427       .  A
C939        C940   1.424       .  A
C939        C946   1.517       .  S
C940        C941   1.410       .  A
C940        H945   1.083       .  S
C941        C942   1.423       .  A
C942        C943   1.523       .  S
C943        F947   1.385       .  S
C943        F948   1.382       .  S
C943        F949   1.383       .  S
C946        F950   1.382       .  S
C946        F951   1.384       .  S
C946        F952   1.385       .  S
C953        C954   1.409       .  A
C953        C958   1.408       .  A
C953        H960   1.084       .  S
C954        C955   1.416       .  A
C955        C956   1.401       .  A
C955        C962   1.513       .  S
C956        C957   1.400       .  A
C956        H961   1.084       .  S
C957        C958   1.411       .  A
C958        C959   1.516       .  S
C959        F963   1.384       .  S
C959        F964   1.383       .  S
C959        F965   1.382       .  S
C962        F966   1.382       .  S
C962        F967   1.375       .  S
C962        F968   1.384       .  S
C969        C970   1.405       .  A
C969        C974   1.407       .  A
C969        H976   1.081       .  S
C970        C971   1.408       .  A
C971        C972   1.401       .  A
C971        C978   1.517       .  S
C972        C973   1.404       .  A
C972        H977   1.082       .  S
C973        C974   1.413       .  A
C974        C975   1.518       .  S
C975        F979   1.385       .  S
C975        F980   1.383       .  S
C975        F981   1.382       .  S
C978        F982   1.382       .  S
C978        F983   1.383       .  S
C978        F984   1.384       .  S
C985        C986   1.404       .  A
C985        C990   1.419       .  A
C985        H992   1.083       .  S
C986        C987   1.419       .  A
C987        C988   1.405       .  A
C987        C994   1.518       .  S
C988        C989   1.408       .  A
C988        H993   1.082       .  S
C989        C990   1.434       .  A
C990        C991   1.521       .  S
C991        F995   1.385       .  S
C991        F996   1.383       .  S
C991        F997   1.383       .  S
C994        F998   1.382       .  S
C994        F999   1.380       .  S
C994       F1000   1.385       .  S
C1001      C1002   1.416       .  A
C1001      C1006   1.420       .  A
C1001      H1008   1.083       .  S
C1002      C1003   1.419       .  A
C1003      C1004   1.415   1_455  A
C1003      C1010   1.519       .  S
C1004      C1005   1.414       .  A
C1004      H1009   1.083       .  S
C1005      C1006   1.419   1_655  A
C1006      C1007   1.517       .  S
C1007      F1011   1.385       .  S
C1007      F1012   1.383       .  S
C1007      F1013   1.381   1_455  S
C1010      F1014   1.383       .  S
C1010      F1015   1.383       .  S
C1010      F1016   1.384   1_455  S
C1017      C1018   1.397       .  A
C1017      C1022   1.416   1_455  A
C1017      H1024   1.082       .  S
C1018      C1019   1.425       .  A
C1019      C1020   1.426   1_455  A
C1019      C1026   1.515       .  S
C1020      C1021   1.412       .  A
C1020      H1025   1.084       .  S
C1021      C1022   1.446       .  A
C1022      C1023   1.533       .  S
C1023      F1027   1.385   1_655  S
C1023      F1028   1.379       .  S
C1023      F1029   1.380       .  S
C1026      F1030   1.383       .  S
C1026      F1031   1.382       .  S
C1026      F1032   1.383   1_455  S
C1033      C1034   1.408   1_556  A
C1033      C1038   1.416       .  A
C1033      H1040   1.083       .  S
C1034      C1035   1.424       .  A
C1035      C1036   1.412       .  A
C1035      C1042   1.518       .  S
C1036      C1037   1.401   1_554  A
C1036      H1041   1.084       .  S
C1037      C1038   1.418       .  A
C1038      C1039   1.517       .  S
C1039      F1043   1.385       .  S
C1039      F1044   1.383       .  S
C1039      F1045   1.381       .  S
C1042      F1046   1.383       .  S
C1042      F1047   1.383       .  S
C1042      F1048   1.385       .  S
C1049      C1050   1.416       .  A
C1049      C1054   1.424   1_655  A
C1049      H1056   1.083       .  S
C1050      C1051   1.421   1_655  A
C1051      C1052   1.410       .  A
C1051      C1058   1.517       .  S
C1052      C1053   1.414       .  A
C1052      H1057   1.084       .  S
C1053      C1054   1.422       .  A
C1054      C1055   1.516       .  S
C1055      F1059   1.384       .  S
C1055      F1060   1.383       .  S
C1055      F1061   1.383       .  S
C1058      F1062   1.384       .  S
C1058      F1063   1.374   1_455  S
C1058      F1064   1.384       .  S
C1065      C1066   1.402       .  A
C1065      C1070   1.406       .  A
C1065      H1072   1.084       .  S
C1066      C1067   1.413       .  A
C1067      C1068   1.404       .  A
C1067      C1074   1.517       .  S
C1068      C1069   1.403       .  A
C1068      H1073   1.084       .  S
C1069      C1070   1.417       .  A
C1070      C1071   1.519       .  S
C1071      F1075   1.385       .  S
C1071      F1076   1.384       .  S
C1071      F1077   1.382       .  S
C1074      F1078   1.382       .  S
C1074      F1079   1.384       .  S
C1074      F1080   1.385       .  S
C1081      C1082   1.393       .  A
C1081      C1086   1.395       .  A
C1081      H1088   1.086       .  S
C1082      C1083   1.415       .  A
C1083      C1084   1.406       .  A
C1083      C1090   1.518       .  S
C1084      C1085   1.403       .  A
C1084      H1089   1.084       .  S
C1085      C1086   1.421       .  A
C1086      C1087   1.515       .  S
C1087      F1091   1.384       .  S
C1087      F1092   1.383       .  S
C1087      F1093   1.372       .  S
C1090      F1094   1.384       .  S
C1090      F1095   1.382       .  S
C1090      F1096   1.385       .  S
C1097      C1098   1.397   1_655  A
C1097      C1102   1.415       .  A
C1097      H1104   1.083   1_655  S
C1098      C1099   1.422       .  A
C1099      C1100   1.418   1_455  A
C1099      C1106   1.515       .  S
C1100      C1101   1.410       .  A
C1100      H1105   1.084       .  S
C1101      C1102   1.438       .  A
C1102      C1103   1.517       .  S
C1103      F1107   1.385       .  S
C1103      F1108   1.382       .  S
C1103      F1109   1.375       .  S
C1106      F1110   1.382       .  S
C1106      F1111   1.385       .  S
C1106      F1112   1.384   1_455  S
C1113      C1114   1.408       .  A
C1113      C1118   1.414       .  A
C1113      H1120   1.083       .  S
C1114      C1115   1.423       .  A
C1115      C1116   1.412       .  A
C1115      C1122   1.521       .  S
C1116      C1117   1.405       .  A
C1116      H1121   1.083       .  S
C1117      C1118   1.417       .  A
C1118      C1119   1.516       .  S
C1119      F1123   1.385       .  S
C1119      F1124   1.382       .  S
C1119      F1125   1.383       .  S
C1122      F1126   1.382       .  S
C1122      F1127   1.383       .  S
C1122      F1128   1.385       .  S
C1129      C1130   1.406       .  A
C1129      C1134   1.415       .  A
C1129      H1136   1.083       .  S
C1130      C1131   1.427       .  A
C1131      C1132   1.413       .  A
C1131      C1138   1.521       .  S
C1132      C1133   1.404       .  A
C1132      H1137   1.081       .  S
C1133      C1134   1.424       .  A
C1134      C1135   1.518       .  S
C1135      F1139   1.384       .  S
C1135      F1140   1.384       .  S
C1135      F1141   1.382       .  S
C1138      F1142   1.383       .  S
C1138      F1143   1.383       .  S
C1138      F1144   1.385       .  S
C1145      C1146   1.399       .  A
C1145      C1150   1.413       .  A
C1145      H1152   1.084       .  S
C1146      C1147   1.418       .  A
C1147      C1148   1.420       .  A
C1147      C1154   1.514       .  S
C1148      C1149   1.410       .  A
C1148      H1153   1.083       .  S
C1149      C1150   1.431       .  A
C1150      C1151   1.519       .  S
C1151      F1155   1.385       .  S
C1151      F1156   1.382       .  S
C1151      F1157   1.383       .  S
C1154      F1158   1.382       .  S
C1154      F1159   1.383       .  S
C1154      F1160   1.384       .  S
C1161      C1162   1.408       .  A
C1161      C1166   1.418       .  A
C1161      H1168   1.083       .  S
C1162      C1163   1.434       .  A
C1163      C1164   1.414       .  A
C1163      C1170   1.522       .  S
C1164      C1165   1.401       .  A
C1164      H1169   1.082       .  S
C1165      C1166   1.428       .  A
C1166      C1167   1.520       .  S
C1167      F1171   1.385       .  S
C1167      F1172   1.384       .  S
C1167      F1173   1.382       .  S
C1170      F1174   1.382       .  S
C1170      F1175   1.383       .  S
C1170      F1176   1.385       .  S
C1177      C1178   1.401   1_556  A
C1177      C1182   1.404       .  A
C1177      H1184   1.085       .  S
C1178      C1179   1.419   1_554  A
C1179      C1180   1.396       .  A
C1179      C1186   1.515       .  S
C1180      C1181   1.395       .  A
C1180      H1185   1.085       .  S
C1181      C1182   1.417       .  A
C1182      C1183   1.518       .  S
C1183      F1187   1.382       .  S
C1183      F1188   1.383       .  S
C1183      F1189   1.384       .  S
C1186      F1190   1.383       .  S
C1186      F1191   1.374   1_556  S
C1186      F1192   1.384       .  S
C1193      C1194   1.397       .  A
C1193      C1198   1.402       .  A
C1193      H1200   1.085       .  S
C1194      C1195   1.419       .  A
C1195      C1196   1.397       .  A
C1195      C1202   1.517       .  S
C1196      C1197   1.395       .  A
C1196      H1201   1.086       .  S
C1197      C1198   1.424       .  A
C1198      C1199   1.520       .  S
C1199      F1203   1.383       .  S
C1199      F1204   1.381       .  S
C1199      F1205   1.383       .  S
C1202      F1206   1.382       .  S
C1202      F1207   1.378       .  S
C1202      F1208   1.384       .  S
C1209      C1210   1.410       .  A
C1209      C1214   1.416       .  A
C1209      H1216   1.083       .  S
C1210      C1211   1.424       .  A
C1211      C1212   1.414       .  A
C1211      C1218   1.519       .  S
C1212      C1213   1.403       .  A
C1212      H1217   1.083       .  S
C1213      C1214   1.417       .  A
C1214      C1215   1.517       .  S
C1215      F1219   1.385       .  S
C1215      F1220   1.382       .  S
C1215      F1221   1.383       .  S
C1218      F1222   1.383       .  S
C1218      F1223   1.382       .  S
C1218      F1224   1.384       .  S
C1225      C1226   1.406       .  A
C1225      C1230   1.415       .  A
C1225      H1232   1.083       .  S
C1226      C1227   1.428       .  A
C1227      C1228   1.410       .  A
C1227      C1234   1.519       .  S
C1228      C1229   1.400       .  A
C1228      H1233   1.083       .  S
C1229      C1230   1.422       .  A
C1230      C1231   1.517       .  S
C1231      F1235   1.385   1_556  S
C1231      F1236   1.384       .  S
C1231      F1237   1.380   1_556  S
C1234      F1238   1.381       .  S
C1234      F1239   1.382       .  S
C1234      F1240   1.386       .  S
C1241      C1242   1.416       .  A
C1241      C1246   1.420       .  A
C1241      H1248   1.082       .  S
C1242      C1243   1.421       .  A
C1243      C1244   1.418       .  A
C1243      C1250   1.517       .  S
C1244      C1245   1.415       .  A
C1244      H1249   1.082       .  S
C1245      C1246   1.423       .  A
C1246      C1247   1.519       .  S
C1247      F1251   1.381       .  S
C1247      F1252   1.383       .  S
C1247      F1253   1.386       .  S
C1250      F1254   1.382       .  S
C1250      F1255   1.381       .  S
C1250      F1256   1.385       .  S
C1257      C1258   1.412       .  A
C1257      C1262   1.419       .  A
C1257      H1264   1.083       .  S
C1258      C1259   1.416       .  A
C1259      C1260   1.414       .  A
C1259      C1266   1.517   1_554  S
C1260      C1261   1.417       .  A
C1260      H1265   1.082       .  S
C1261      C1262   1.424       .  A
C1262      C1263   1.517       .  S
C1263      F1267   1.385       .  S
C1263      F1268   1.382       .  S
C1263      F1269   1.383       .  S
C1266      F1270   1.383       .  S
C1266      F1271   1.380       .  S
C1266      F1272   1.385       .  S
C1273      C1274   1.406       .  A
C1273      C1278   1.414       .  A
C1273      H1280   1.083       .  S
C1274      C1275   1.420       .  A
C1275      C1276   1.407       .  A
C1275      C1282   1.521       .  S
C1276      C1277   1.404       .  A
C1276      H1281   1.084       .  S
C1277      C1278   1.418       .  A
C1278      C1279   1.516       .  S
C1279      F1283   1.381       .  S
C1279      F1284   1.384       .  S
C1279      F1285   1.385       .  S
C1282      F1286   1.382       .  S
C1282      F1287   1.383       .  S
C1282      F1288   1.385       .  S
C1289      C1290   1.405       .  A
C1289      C1294   1.410       .  A
C1289      H1296   1.083       .  S
C1290      C1291   1.429       .  A
C1291      C1292   1.415       .  A
C1291      C1298   1.518       .  S
C1292      C1293   1.403       .  A
C1292      H1297   1.083       .  S
C1293      C1294   1.422       .  A
C1294      C1295   1.518       .  S
C1295      F1299   1.385       .  S
C1295      F1300   1.384       .  S
C1295      F1301   1.381       .  S
C1298      F1302   1.382       .  S
C1298      F1303   1.383       .  S
C1298      F1304   1.385       .  S
C1305      C1306   1.411       .  A
C1305      C1310   1.404       .  A
C1305      H1312   1.083       .  S
C1306      C1307   1.415       .  A
C1307      C1308   1.403       .  A
C1307      C1314   1.519       .  S
C1308      C1309   1.405       .  A
C1308      H1313   1.084       .  S
C1309      C1310   1.408       .  A
C1310      C1311   1.517       .  S
C1311      F1315   1.385       .  S
C1311      F1316   1.383       .  S
C1311      F1317   1.383       .  S
C1314      F1318   1.383       .  S
C1314      F1319   1.383       .  S
C1314      F1320   1.385       .  S
C1321      C1322   1.401       .  A
C1321      C1326   1.408       .  A
C1321      H1328   1.084       .  S
C1322      C1323   1.415       .  A
C1323      C1324   1.408       .  A
C1323      C1330   1.518       .  S
C1324      C1325   1.405       .  A
C1324      H1329   1.083       .  S
C1325      C1326   1.421       .  A
C1326      C1327   1.520       .  S
C1327      F1331   1.385       .  S
C1327      F1332   1.383       .  S
C1327      F1333   1.379       .  S
C1330      F1334   1.381       .  S
C1330      F1335   1.383       .  S
C1330      F1336   1.385       .  S
C1337      C1338   1.412       .  A
C1337      C1342   1.418       .  A
C1337      H1344   1.083       .  S
C1338      C1339   1.418       .  A
C1339      C1340   1.416       .  A
C1339      C1346   1.519       .  S
C1340      C1341   1.416       .  A
C1340      H1345   1.082       .  S
C1341      C1342   1.422       .  A
C1342      C1343   1.518       .  S
C1343      F1347   1.385       .  S
C1343      F1348   1.383       .  S
C1343      F1349   1.381       .  S
C1346      F1350   1.383       .  S
C1346      F1351   1.383       .  S
C1346      F1352   1.384       .  S
C1353      C1354   1.416       .  A
C1353      C1358   1.417       .  A
C1353      H1360   1.083       .  S
C1354      C1355   1.419       .  A
C1355      C1356   1.416       .  A
C1355      C1362   1.518       .  S
C1356      C1357   1.415       .  A
C1356      H1361   1.083       .  S
C1357      C1358   1.418       .  A
C1358      C1359   1.518       .  S
C1359      F1363   1.385       .  S
C1359      F1364   1.383       .  S
C1359      F1365   1.383       .  S
C1362      F1366   1.382       .  S
C1362      F1367   1.382       .  S
C1362      F1368   1.385       .  S
