geometry optimzed in LAMMPS
_audit_creation_date              2020-12-01 
_audit_creation_method            'lammps2cif' 
_symmetry_space_group_name_H-M    'P1' 
_symmetry_Int_Tables_number       1 
_symmetry_cell_setting            triclinic 
loop_ 
_symmetry_equiv_pos_as_xyz 
  x,y,z 
_cell_length_a                    37.16435861 
_cell_length_b                    37.27490556742176 
_cell_length_c                    39.5725532617562 
_cell_angle_alpha                 90.42489160244543 
_cell_angle_beta                  91.12738128754377 
_cell_angle_gamma                 120.80945239553698 
loop_ 
_atom_site_label 
_atom_site_type_symbol 
_atom_site_fract_x 
_atom_site_fract_y 
_atom_site_fract_z 
_atom_site_charge 
N1          N  0.59177445  0.59097218  0.07485541    -0.02800
C2          C  0.60928128  0.61959792  0.10041239    -0.00200
C3          C  0.57959221  0.62628548  0.11475345    -0.23100
C4          C  0.54236412  0.60042350  0.09765506    -0.23300
C5          C  0.55050535  0.57863003  0.07349180    -0.00300
H6          H  0.58414696  0.64641774  0.13626565     0.13500
H7          H  0.51199655  0.59538452  0.10420565     0.13500
N8          N  0.39049562  0.38276727  0.05159305    -0.02800
C9          C  0.35271735  0.35891116  0.06589444    -0.00200
C10         C  0.33879207  0.38381211  0.07928066    -0.23100
C11         C  0.36887198  0.42441008  0.07294396    -0.23300
C12         C  0.40037682  0.42301888  0.05601543    -0.00300
H13         H  0.31093889  0.37365167  0.09382626     0.13500
H14         H  0.36894172  0.45204660  0.08162813     0.13500
N15         N  0.46869164  0.33568094  0.45294421    -0.02800
C16         C  0.45093057  0.30584999  0.42822145    -0.00200
C17         C  0.48114833  0.30046410  0.41317999    -0.23100
C18         C  0.51866811  0.32775513  0.42932776    -0.23300
C19         C  0.51023329  0.34924650  0.45347457    -0.00300
H20         H  0.47659200  0.27994688  0.39195435     0.13500
H21         H  0.54918010  0.33323882  0.42270740     0.13500
N22         N  0.67486631  0.53852212  0.48534074    -0.02800
C23         C  0.71196880  0.56186180  0.46998616    -0.00200
C24         C  0.72498196  0.53628043  0.45641923    -0.23100
C25         C  0.69479159  0.49590941  0.46350571    -0.23300
C26         C  0.66416844  0.49805642  0.48119901    -0.00300
H27         H  0.75176258  0.54572058  0.44067631     0.13500
H28         H  0.69347555  0.46800132  0.45389696     0.13500
N29         N  0.58762796  0.89682198  0.07337104    -0.02800
C30         C  0.60628632  0.88583245  0.09754868    -0.00200
C31         C  0.57651058  0.85061881  0.11370743    -0.23100
C32         C  0.53831037  0.83966063  0.09887228    -0.23300
C33         C  0.54597038  0.86866525  0.07421185    -0.00300
H34         H  0.58184178  0.83548172  0.13482732     0.13500
H35         H  0.50800222  0.81509245  0.10693289     0.13500
N36         N  0.38611032  0.90190719  0.04958228    -0.02800
C37         C  0.34783742  0.88729877  0.06302594    -0.00200
C38         C  0.33356447  0.84820080  0.07623268    -0.23100
C39         C  0.36396512  0.83837300  0.07072166    -0.23300
C40         C  0.39600826  0.87189441  0.05445110    -0.00300
H41         H  0.30528258  0.82995548  0.09025154     0.13500
H42         H  0.36389085  0.81093984  0.07958944     0.13500
N43         N  0.46606474  0.03105591  0.45403844    -0.02800
C44         C  0.44736683  0.04262517  0.43043312    -0.00200
C45         C  0.47696605  0.07772862  0.41412636    -0.23100
C46         C  0.51531085  0.08784937  0.42807600    -0.23300
C47         C  0.50783447  0.05842875  0.45237078    -0.00300
H48         H  0.47145340  0.09287122  0.39310509     0.13500
H49         H  0.54550631  0.11182300  0.41931680     0.13500
N50         N  0.66313071  0.01700289  0.47059978    -0.02800
C51         C  0.69919842  0.02872000  0.45423121    -0.00200
C52         C  0.71262029  0.06614738  0.43827372    -0.23100
C53         C  0.68409656  0.07805746  0.44508548    -0.23300
C54         C  0.65388528  0.04732673  0.46480295    -0.00300
H55         H  0.73907731  0.08189061  0.42188708     0.13500
H56         H  0.68397775  0.10488888  0.43495664     0.13500
In57       In  0.83940830  0.77378787  0.19795700     1.36900
C58         C  0.84662828  0.77708188  0.26514620     0.78300
O59         O  0.87404752  0.73864846  0.19855508    -0.60200
O60         O  0.90163516  0.79670620  0.17388032    -0.51100
C61         C  0.77296027  0.71611092  0.16214476     0.70900
O62         O  0.77767046  0.71414017  0.19352669    -0.45900
C63         C  0.83326385  0.84122173  0.18845325     0.75600
O64         O  0.81669331  0.74667912  0.24924986    -0.57800
O65         O  0.86096071  0.83650937  0.17479472    -0.47900
O66         O  0.87279821  0.80568178  0.24678575    -0.54200
C67         C  0.90522467  0.76652209  0.18340724     0.85800
O68         O  0.80359365  0.74670460  0.14859609    -0.56100
O69         O  0.80806692  0.81105769  0.20607765    -0.59400
In70       In  0.01815721  0.77086303  0.18096887     1.36900
C71         C  0.02693842  0.77426716  0.24853952     0.78300
O72         O  0.08863277  0.80985760  0.18065174    -0.60200
O73         O  0.05445697  0.83371747  0.15602794    -0.51100
C74         C  0.00803769  0.70784782  0.14017850     0.70900
O75         O  0.02315544  0.71407921  0.16986449    -0.45900
C76         C  0.94405451  0.76583124  0.17972203     0.75600
O77         O  0.02479347  0.74482066  0.23095959    -0.57800
O78         O  0.97591974  0.79512159  0.16622442    -0.47900
O79         O  0.02459943  0.80152808  0.23169200    -0.54200
C80         C  0.08976239  0.84006275  0.16566213     0.85800
O81         O  0.99955884  0.73498558  0.13073607    -0.56100
O82         O  0.94926926  0.73764607  0.19203331    -0.59400
In83       In  0.83700325  0.95357736  0.19075076     1.36900
C84         C  0.84476039  0.95845094  0.25813274     0.78300
O85         O  0.80643139  0.88537689  0.20232999    -0.60200
O86         O  0.85848795  0.91118011  0.17012786    -0.51100
C87         C  0.77095289  0.94545828  0.15475100     0.70900
O88         O  0.77754831  0.95518616  0.18572889    -0.45900
C89         C  0.90410288  0.02696663  0.17616751     0.75600
O90         O  0.81326233  0.95517341  0.24249829    -0.57800
O91         O  0.89864995  0.99275343  0.16498183    -0.47900
O92         O  0.87254497  0.96008035  0.23939208    -0.54200
C93         C  0.83216117  0.87989521  0.18622822     0.85800
O94         O  0.79922932  0.94125450  0.14155145    -0.56100
O95         O  0.87400925  0.02388953  0.19259945    -0.59400
In96       In  0.01865129  0.13666133  0.17597153     1.36900
C97         C  0.02569954  0.14221136  0.24342751     0.78300
O98         O  0.95010471  0.09996590  0.18736232    -0.60200
O99         O  0.97504408  0.06983153  0.15857267    -0.51100
C100        C  0.00987114  0.19090908  0.13715941     0.70900
O101        O  0.02431096  0.19887101  0.16705636    -0.45900
C102        C  0.09104396  0.14121336  0.16195291     0.75600
O103        O  0.02410294  0.16941128  0.22578986    -0.57800
O104        O  0.05610701  0.11114851  0.15180228    -0.47900
O105        O  0.02364956  0.11232511  0.22668446    -0.54200
C106        C  0.94372994  0.06676013  0.17316137     0.85800
O107        O  0.00160300  0.15551251  0.12629118    -0.56100
O108        O  0.08912595  0.17005425  0.17689432    -0.59400
In109      In  0.20033939  0.13785304  0.16340771     1.36900
C110        C  0.20654622  0.14290323  0.23060994     0.78300
O111        O  0.16442727  0.17035262  0.17225045    -0.60200
O112        O  0.13268619  0.11138900  0.14675454    -0.51100
C113        C  0.25556350  0.19819522  0.12364648     0.70900
O114        O  0.26405774  0.19269515  0.15338517    -0.45900
C115        C  0.20436251  0.06899635  0.15325257     0.75600
O116        O  0.23157850  0.17226657  0.21220795    -0.57800
O117        O  0.17533589  0.07303205  0.14044794    -0.47900
O118        O  0.17825396  0.11121733  0.21474646    -0.54200
C119        C  0.13049038  0.14134764  0.15944470     0.85800
O120        O  0.21918881  0.17101924  0.11327862    -0.56100
O121        O  0.23270481  0.10113913  0.16854055    -0.59400
In122      In  0.19826952  0.95568711  0.16443805     1.36900
C123        C  0.20612030  0.95954574  0.23159318     0.78300
O124        O  0.23136959  0.02562712  0.16932887    -0.60200
O125        O  0.17414641  0.99540480  0.14113165    -0.51100
C126        C  0.25100216  0.94871128  0.12309052     0.70900
O127        O  0.26096502  0.96417587  0.15254421    -0.45900
C128        C  0.12877831  0.88045684  0.16245402     0.75600
O129        O  0.23307847  0.95928625  0.21288485    -0.57800
O130        O  0.13009069  0.91203349  0.14962190    -0.47900
O131        O  0.17520220  0.95751352  0.21604477    -0.54200
C132        C  0.20367924  0.02920093  0.15365070     0.85800
O133        O  0.21417652  0.93837683  0.11392999    -0.56100
O134        O  0.16325945  0.88698499  0.17464217    -0.59400
In135      In  0.85899586  0.78379226  0.36922086     1.36900
C136        C  0.85081065  0.77922777  0.30208599     0.78300
O137        O  0.82384266  0.81828134  0.36888232    -0.60200
O138        O  0.88666070  0.85128831  0.38722822    -0.51100
C139        C  0.80701250  0.72200856  0.40944031     0.70900
O140        O  0.79755293  0.72604582  0.37956804    -0.43500
C141        C  0.92771612  0.77838263  0.37204936     0.75600
O142        O  0.82445933  0.75115751  0.32074002    -0.57800
O143        O  0.92546393  0.80673908  0.38780612    -0.47900
O144        O  0.88123605  0.80944556  0.31768141    -0.54200
C145        C  0.85458311  0.85278855  0.37877755     0.85800
O146        O  0.84235347  0.75147965  0.41975889    -0.56100
O147        O  0.89444401  0.75199540  0.35662819    -0.59400
In148      In  0.03873903  0.78307690  0.35323749     1.36900
C149        C  0.03146752  0.77700302  0.28564598     0.78300
O150        O  0.96854234  0.75091794  0.35083168    -0.60200
O151        O  0.00136808  0.80568284  0.38152347    -0.51100
C152        C  0.04877406  0.73010021  0.39248682     0.70900
O153        O  0.03247845  0.72073901  0.36315180    -0.45900
C154        C  0.11189616  0.85455629  0.35500204     0.75600
O155        O  0.03644752  0.75167196  0.30318474    -0.57800
O156        O  0.07926312  0.85145080  0.36698536    -0.47900
O157        O  0.03047522  0.80522012  0.30254920    -0.54200
C158        C  0.96667844  0.77779007  0.36892498     0.85800
O159        O  0.05807953  0.76608865  0.40251891    -0.56100
O160        O  0.10768258  0.82078601  0.34396229    -0.59400
In161      In  0.85657331  0.96381652  0.36273137     1.36900
C162        C  0.84875367  0.95994424  0.29518957     0.78300
O163        O  0.89122549  0.03296562  0.35309207    -0.60200
O164        O  0.92421707  0.00815970  0.37853591    -0.51100
C165        C  0.80052677  0.96874272  0.40145480     0.70900
O166        O  0.79279110  0.95373199  0.37184604    -0.45900
C167        C  0.85406853  0.89201017  0.37669843     0.75600
O168        O  0.82220184  0.96058326  0.31405057    -0.57800
O169        O  0.88422611  0.92714277  0.38626788    -0.47900
O170        O  0.87903617  0.96067373  0.31073491    -0.54200
C171        C  0.92562710  0.03965275  0.36555374     0.85800
O172        O  0.83696177  0.97968175  0.41232923    -0.56100
O173        O  0.82449416  0.89352461  0.36217689    -0.59400
In174      In  0.03707835  0.14880113  0.34784454     1.36900
C175        C  0.02962530  0.14484264  0.28048196     0.78300
O176        O  0.10474123  0.18000603  0.33449526    -0.60200
O177        O  0.08118520  0.12847911  0.36741594    -0.51100
C178        C  0.04778153  0.21304763  0.38671805     0.70900
O179        O  0.03311417  0.20630004  0.35686684    -0.45900
C180        C  0.96482289  0.07993227  0.36245951     0.75600
O181        O  0.03252789  0.17493695  0.29762393    -0.57800
O182        O  0.99997866  0.08557002  0.37171269    -0.47900
O183        O  0.03047606  0.11697978  0.29770056    -0.54200
C184        C  0.11175265  0.15531851  0.35094787     0.85800
O185        O  0.05494829  0.18550572  0.39742391    -0.56100
O186        O  0.96637531  0.11062410  0.34795705    -0.59400
In187      In  0.21731072  0.14884097  0.33458811     1.36900
C188        C  0.21015089  0.14517375  0.26755042     0.78300
O189        O  0.24878006  0.11190780  0.32627820    -0.60200
O190        O  0.19353326  0.08441083  0.35492965    -0.51100
C191        C  0.28554129  0.20777452  0.36818713     0.70900
O192        O  0.27915506  0.20808876  0.33692799    -0.45900
C193        C  0.15118933  0.15567905  0.34839279     0.75600
O194        O  0.23886881  0.17652367  0.28350794    -0.57800
O195        O  0.15805326  0.12972793  0.36290944    -0.47900
O196        O  0.18490440  0.11576340  0.28582114    -0.54200
C197        C  0.22184816  0.08036963  0.34165917     0.85800
O198        O  0.25538537  0.17821142  0.38313335    -0.56100
O199        O  0.17960307  0.18006396  0.32914077    -0.59400
In200      In  0.21699372  0.96783294  0.33575282     1.36900
C201        C  0.21021224  0.96224011  0.26854494     0.78300
O202        O  0.18197620  0.89775589  0.33684815    -0.60200
O203        O  0.15442408  0.92902126  0.36002877    -0.51100
C204        C  0.28275110  0.97757303  0.37237043     0.70900
O205        O  0.27462737  0.96329261  0.34248014    -0.45900
C206        C  0.22192460  0.04117123  0.34183173     0.75600
O207        O  0.24213763  0.96705178  0.28449355    -0.57800
O208        O  0.19499752  0.00925250  0.35695831    -0.47900
O209        O  0.18194205  0.96022165  0.28686593    -0.54200
C210        C  0.15072785  0.89470399  0.35134940     0.85800
O211        O  0.25593896  0.98503575  0.38414696    -0.56100
O212        O  0.24752778  0.03611125  0.32506282    -0.59400
N213        N  0.09799516  0.39468115  0.46850071    -0.02800
C214        C  0.11281255  0.37431179  0.45019730    -0.00200
C215        C  0.15144590  0.40246253  0.43756016    -0.23100
C216        C  0.16082052  0.44145455  0.44855004    -0.23300
C217        C  0.12740071  0.43594368  0.46734570    -0.00300
H218        H  0.16962029  0.39558727  0.42048285     0.13500
H219        H  0.18777885  0.47086786  0.44161257     0.13500
N220        N  0.10002703  0.60008511  0.47143086    -0.02800
C221        C  0.11399713  0.63553611  0.45372605    -0.00200
C222        C  0.15252757  0.64736706  0.44047079    -0.23100
C223        C  0.16255548  0.61818507  0.45053407    -0.23300
C224        C  0.12967431  0.58932878  0.46952035    -0.00300
H225        H  0.17015203  0.67291526  0.42356740     0.13500
H226        H  0.18944821  0.61656746  0.44274815     0.13500
N227        N  0.96250393  0.32427669  0.05878294    -0.02800
C228        C  0.94700993  0.28707108  0.07427663    -0.00200
C229        C  0.90649031  0.27276097  0.08407150    -0.23100
C230        C  0.89657593  0.30200959  0.07401227    -0.23300
C231        C  0.93145337  0.33332868  0.05840412    -0.00300
H232        H  0.88697614  0.24502221  0.09835186     0.13500
H233        H  0.86787845  0.30155053  0.07925148     0.13500
N234        N  0.96073975  0.52735581  0.05768886    -0.02800
C235        C  0.94474280  0.54832737  0.07351910    -0.00200
C236        C  0.90451842  0.52067011  0.08358972    -0.23100
C237        C  0.89557708  0.48134791  0.07375347    -0.23300
C238        C  0.93075481  0.48619338  0.05811321    -0.00300
H239        H  0.88471744  0.52805555  0.09814947     0.13500
H240        H  0.86743893  0.45219209  0.07929884     0.13500
C241        C  0.93610988  0.37417089  0.04922579    -0.04800
C242        C  0.97163901  0.41143142  0.06076771    -0.32200
C243        C  0.97191367  0.44922017  0.06117594     0.37100
C244        C  0.93637591  0.45035418  0.04947866    -0.05100
C245        C  0.90247693  0.41380773  0.03493396    -0.32100
C246        C  0.90227887  0.37608273  0.03453067     0.37000
H247        H  0.99780090  0.41071203  0.07245317     0.17300
O248        O  0.00547480  0.48371224  0.07616065    -0.59600
H249        H  0.87499453  0.41399129  0.02552628     0.17300
O250        O  0.86766714  0.34070169  0.02162862    -0.59700
H251        H  0.87607723  0.33565738  0.99925745     0.44300
H252        H  0.99812860  0.48315249  0.10014831     0.44300
C253        C  0.06480292  0.58199346  0.49312720    -0.04800
C254        C  0.02405335  0.55884245  0.47942132    -0.32200
C255        C  0.98975905  0.54039003  0.00065533     0.37100
C256        C  0.99606979  0.54577416  0.03597535    -0.05100
C257        C  0.03687961  0.56970687  0.04961531    -0.32100
C258        C  0.07118302  0.58753529  0.02838765     0.37000
H259        H  0.01898695  0.55459373  0.45231890     0.17300
O260        O  0.94998945  0.51816361  0.98676717    -0.59600
H261        H  0.04213016  0.57379870  0.07670339     0.17300
O262        O  0.11094857  0.61020202  0.04222684    -0.59700
H263        H  0.11918789  0.63986199  0.03965414     0.44300
H264        H  0.94545290  0.49011192  0.98131246     0.44300
C265        C  0.06354963  0.37598654  0.49111702    -0.04800
C266        C  0.07169299  0.38190600  0.02615403    -0.32200
C267        C  0.03878207  0.36482718  0.04887977     0.37100
C268        C  0.99720624  0.34182496  0.03649133    -0.05100
C269        C  0.98909209  0.33597233  0.00152476    -0.32100
C270        C  0.02193055  0.35240315  0.97883268     0.37000
H271        H  0.10373710  0.39991700  0.03577305     0.17300
O272        O  0.04738972  0.37091912  0.08297862    -0.59600
H273        H  0.95701518  0.31848027  0.99190210     0.17300
O274        O  0.01309168  0.34750528  0.44473946    -0.59700
H275        H  0.99956703  0.31709137  0.43993397     0.44300
H276        H  0.05587498  0.40043563  0.08766626     0.44300
C277        C  0.12225059  0.47146085  0.47774417    -0.04800
C278        C  0.15730625  0.50781527  0.49124972    -0.32200
C279        C  0.15849073  0.54595252  0.49187697     0.37100
C280        C  0.12429181  0.54835129  0.47879290    -0.05100
C281        C  0.08765799  0.51134433  0.46842646    -0.32100
C282        C  0.08650948  0.47314454  0.46759739     0.37000
H283        H  0.18506935  0.50722367  0.99918236     0.17300
O284        O  0.19453600  0.58130264  0.00289554    -0.59600
H285        H  0.06126629  0.51253123  0.45773409     0.17300
O286        O  0.05191478  0.43887259  0.45345779    -0.59700
H287        H  0.05789573  0.43919092  0.42913877     0.44300
H288        H  0.18775177  0.58868261  0.02504915     0.44300
C289        C  0.08843943  0.33051633  0.43785741    -0.04800
C290        C  0.09096137  0.29902741  0.45491433    -0.32200
C291        C  0.07575090  0.25958723  0.43944080     0.37100
C292        C  0.05801253  0.25146573  0.40630823    -0.05100
C293        C  0.05367947  0.28256544  0.39020930    -0.32100
C294        C  0.06920178  0.32186966  0.40551323     0.37000
H295        H  0.10655835  0.30567376  0.47953784     0.17300
O296        O  0.08058739  0.23019348  0.45618229    -0.59600
H297        H  0.04011702  0.27723456  0.36486942     0.17300
O298        O  0.06675749  0.35231761  0.38814907    -0.59700
H299        H  0.09210508  0.36582088  0.37422601     0.44300
H300        H  0.05442983  0.21382320  0.46884101     0.44300
C301        C  0.05847180  0.70203747  0.41215117    -0.04800
C302        C  0.05118012  0.66464550  0.39684259    -0.32200
C303        C  0.06618304  0.64077191  0.41191573     0.37100
C304        C  0.08880985  0.65396671  0.44282891    -0.05100
C305        C  0.09389700  0.68970666  0.45938652    -0.32100
C306        C  0.07883966  0.71372527  0.44432464     0.37000
H307        H  0.03569922  0.65489048  0.37218637     0.17300
O308        O  0.06192472  0.60657006  0.39482955    -0.59600
H309        H  0.11162205  0.70030441  0.48309935     0.17300
O310        O  0.08566422  0.74933179  0.46068155    -0.59700
H311        H  0.11459045  0.77117249  0.45505738     0.44300
H312        H  0.03182489  0.58490714  0.39596004     0.44300
C313        C  0.00095209  0.21960449  0.11752027    -0.04800
C314        C  0.97858094  0.20616006  0.08640243    -0.32200
C315        C  0.96338698  0.22959598  0.07049599     0.37100
C316        C  0.97114723  0.26742478  0.08526120    -0.05100
C317        C  0.99556759  0.28212522  0.11514949    -0.32100
C318        C  0.01071705  0.25885553  0.13113067     0.37000
H319        H  0.97087430  0.17634624  0.07525470     0.17300
O320        O  0.93969389  0.21457674  0.04116878    -0.59600
H321        H  0.00085058  0.31064677  0.12727889     0.17300
O322        O  0.03278470  0.27369932  0.16118541    -0.59700
H323        H  0.06255510  0.29066083  0.15486775     0.44300
H324        H  0.91072862  0.19521631  0.04847125     0.44300
C325        C  0.96844250  0.59271663  0.08496885    -0.04800
C326        C  0.99648644  0.60420686  0.11269767    -0.32200
C327        C  0.01171894  0.64271022  0.12965791     0.37100
C328        C  0.99862248  0.67049180  0.11914819    -0.05100
C329        C  0.97266665  0.65999408  0.08992958    -0.32100
C330        C  0.95755667  0.62143319  0.07297129     0.37000
H331        H  0.00461826  0.58216541  0.12258537     0.17300
O332        O  0.03848351  0.65227692  0.15706712    -0.59600
H333        H  0.96231172  0.68078354  0.08115481     0.17300
O334        O  0.93033151  0.61114744  0.04580984    -0.59700
H335        H  0.94802536  0.61805438  0.02563606     0.44300
H336        H  0.02023787  0.63758686  0.17626398     0.44300
C337        C  0.76996817  0.97541371  0.42015352    -0.04800
C338        C  0.73187113  0.96519474  0.40377258    -0.32200
C339        C  0.70629446  0.97911696  0.41671651     0.37100
C340        C  0.71780767  0.00273924  0.44705784    -0.05100
C341        C  0.75400817  0.01014076  0.46498226    -0.32100
C342        C  0.77984390  0.99625765  0.45194431     0.37000
H343        H  0.72315086  0.94880484  0.37954421     0.17300
O344        O  0.67144799  0.97190513  0.39829647    -0.59600
H345        H  0.76370225  0.02904895  0.48800209     0.17300
O346        O  0.81608518  0.00593949  0.46930507    -0.59700
H347        H  0.80833122  0.98167565  0.48398410     0.44300
H348        H  0.68137749  0.99592979  0.38301154     0.44300
C349        C  0.32190790  0.98722945  0.39087042    -0.04800
C350        C  0.35137703  0.98086943  0.37434015    -0.32200
C351        C  0.39171846  0.99670378  0.38823512     0.37100
C352        C  0.40292792  0.01849090  0.41942015    -0.05100
C353        C  0.37284640  0.02225557  0.43726351    -0.32100
C354        C  0.33246735  0.00676832  0.42323342     0.37000
H355        H  0.34397271  0.96555971  0.34968139     0.17300
O356        O  0.42054058  0.99199395  0.37064123    -0.59600
H357        H  0.38137281  0.03923793  0.46122576     0.17300
O358        O  0.30464917  0.01340685  0.44040163    -0.59700
H359        H  0.28886307  0.98832738  0.45441150     0.44300
H360        H  0.43272143  0.01540636  0.35458487     0.44300
C361        C  0.54133274  0.05166536  0.46590928    -0.04800
C362        C  0.53908476  0.01358591  0.45891051    -0.32200
C363        C  0.57495499  0.01021362  0.46168085     0.37100
C364        C  0.61374224  0.04525251  0.47193292    -0.05100
C365        C  0.61492284  0.08205662  0.48202951    -0.32100
C366        C  0.57922414  0.08555657  0.47879080     0.37000
H367        H  0.51052356  0.98753687  0.44808660     0.17300
O368        O  0.57284234  0.97446660  0.44995506    -0.59600
H369        H  0.64443121  0.10928154  0.49003255     0.17300
O370        O  0.58207975  0.12286887  0.48666194    -0.59700
H371        H  0.59808392  0.14193168  0.46817738     0.44300
H372        H  0.55647857  0.95296712  0.46682556     0.44300
C373        C  0.32769494  0.91184119  0.07064760    -0.04800
C374        C  0.34541769  0.94253622  0.09637588    -0.32200
C375        C  0.32157455  0.95686112  0.11228661     0.37100
C376        C  0.27924459  0.94075761  0.10227721    -0.05100
C377        C  0.26269188  0.91259777  0.07455313    -0.32100
C378        C  0.28646253  0.89785481  0.05903777     0.37000
H379        H  0.37670435  0.95283593  0.10620907     0.17300
O380        O  0.33947410  0.98523889  0.13861310    -0.59600
H381        H  0.23031812  0.89972266  0.06636997     0.17300
O382        O  0.26802930  0.86731151  0.03433011    -0.59700
H383        H  0.27612908  0.88242267  0.01269200     0.44300
H384        H  0.33818354  0.96862470  0.15852052     0.44300
C385        C  0.44540836  0.99850464  0.47812961    -0.04800
C386        C  0.42284363  0.95662969  0.46732549    -0.32200
C387        C  0.40319618  0.92482878  0.99082824     0.37100
C388        C  0.40528465  0.93479679  0.02549475    -0.05100
C389        C  0.42663391  0.97679351  0.03613509    -0.32100
C390        C  0.44701548  0.00857312  0.51267302     0.37000
H391        H  0.42103262  0.94871994  0.44071128     0.17300
O392        O  0.38109657  0.88398476  0.97975349    -0.59600
H393        H  0.42824392  0.98485650  0.06265747     0.17300
O394        O  0.46741089  0.04952901  0.52344757    -0.59700
H395        H  0.49594087  0.05613216  0.53044302     0.44300
H396        H  0.40233203  0.87564544  0.97719594     0.44300
C397        C  0.65104368  0.90941829  0.10836350    -0.04800
C398        C  0.68110357  0.90677024  0.08939961    -0.32200
C399        C  0.72140215  0.92064257  0.10325188     0.37100
C400        C  0.73197258  0.93746843  0.13656457    -0.05100
C401        C  0.70264505  0.94293216  0.15427741    -0.32100
C402        C  0.66244054  0.92865673  0.14062040     0.37000
H403        H  0.67254441  0.89165757  0.06464658     0.17300
O404        O  0.74899573  0.91485594  0.08490550    -0.59600
H405        H  0.71003427  0.95632506  0.17964656     0.17300
O406        O  0.63390082  0.93241976  0.15946794    -0.59700
H407        H  0.62173778  0.90803320  0.17456342     0.44300
H408        H  0.76390847  0.94014622  0.07097997     0.44300
C409        C  0.60803405  0.92749578  0.04792953    -0.04800
C410        C  0.60716415  0.91423852  0.01454502    -0.32200
C411        C  0.62623729  0.94329435  0.98892332     0.37100
C412        C  0.64529261  0.98622738  0.49650378    -0.05100
C413        C  0.64596636  0.99939525  0.03001538    -0.32100
C414        C  0.62796537  0.97031591  0.05576719     0.37000
H415        H  0.59152250  0.88114403  0.00844766     0.17300
O416        O  0.62367762  0.92946650  0.45629571    -0.59600
H417        H  0.66054266  0.03240896  0.03608787     0.17300
O418        O  0.62834043  0.98377245  0.08817470    -0.59700
H419        H  0.65689417  0.99333601  0.09744100     0.44300
H420        H  0.64010505  0.91524773  0.45623987     0.44300
C421        C  0.51234686  0.87429522  0.05920607    -0.04800
C422        C  0.51141086  0.91033775  0.06795096    -0.32200
C423        C  0.47438175  0.91140192  0.06407469     0.37100
C424        C  0.43786484  0.87657205  0.05004080    -0.05100
C425        C  0.44012434  0.84211676  0.03828941    -0.32100
C426        C  0.47683908  0.84061369  0.04312914     0.37000
H427        H  0.53810414  0.93609899  0.08109854     0.17300
O428        O  0.47314341  0.94470696  0.07757310    -0.59600
H429        H  0.41238577  0.81499810  0.02754385     0.17300
O430        O  0.47719278  0.80536336  0.03349834    -0.59700
H431        H  0.46216693  0.78476197  0.05136490     0.44300
H432        H  0.46325806  0.93660702  0.10094025     0.44300
C433        C  0.73089638  0.60599078  0.46024832    -0.04800
C434        C  0.76988169  0.63601505  0.47446753    -0.32200
C435        C  0.79424965  0.67496306  0.45932546     0.37100
C436        C  0.77963915  0.68435979  0.42940179    -0.05100
C437        C  0.73975083  0.65474614  0.41611071    -0.32100
C438        C  0.71550462  0.61583482  0.43119822     0.37000
H439        H  0.78260222  0.62826293  0.49619998     0.17300
O440        O  0.83324626  0.70249426  0.47291502    -0.59600
H441        H  0.72806723  0.66084080  0.39287618     0.17300
O442        O  0.67899930  0.58585613  0.41530902    -0.59700
H443        H  0.66053437  0.59779861  0.41405333     0.44300
H444        H  0.85227230  0.69435764  0.46268233     0.44300
C445        C  0.40714253  0.28544456  0.41521869    -0.04800
C446        C  0.40039905  0.28937280  0.38086300    -0.32200
C447        C  0.36051557  0.26623188  0.36578645     0.37100
C448        C  0.32621283  0.23785315  0.38505649    -0.05100
C449        C  0.33258458  0.23544991  0.41995556    -0.32100
C450        C  0.37280434  0.25893236  0.43505648     0.37000
H451        H  0.42660221  0.30967882  0.36531530     0.17300
O452        O  0.35614421  0.26974165  0.33167311    -0.59600
H453        H  0.30676437  0.21390039  0.43526142     0.17300
O454        O  0.37847979  0.25393061  0.46865134    -0.59700
H455        H  0.38610149  0.23204096  0.46922653     0.44300
H456        H  0.35096129  0.29319787  0.32941252     0.44300
C457        C  0.54387089  0.38747321  0.47089967    -0.04800
C458        C  0.57676872  0.38584513  0.48737200    -0.32200
C459        C  0.61536108  0.42244746  0.49421058     0.37100
C460        C  0.62133032  0.46142620  0.48470046    -0.05100
C461        C  0.58707996  0.46329329  0.47130867    -0.32100
C462        C  0.54854297  0.42671677  0.46435957     0.37000
H463        H  0.57359787  0.35587094  0.49259011     0.17300
O464        O  0.64775520  0.41975681  0.50867133    -0.59600
H465        H  0.59123601  0.49271221  0.46289486     0.17300
O466        O  0.51788325  0.42950095  0.44686766    -0.59700
H467        H  0.50728004  0.44209244  0.46311344     0.44300
H468        H  0.65619532  0.40647833  0.49120090     0.44300
C469        C  0.28460180  0.23534276  0.10391740    -0.04800
C470        C  0.26954927  0.24562174  0.07487796    -0.32200
C471        C  0.29329135  0.28486501  0.06011775     0.37100
C472        C  0.33292530  0.31423302  0.07399241    -0.05100
C473        C  0.34896895  0.30313895  0.10168584    -0.32100
C474        C  0.32548048  0.26401048  0.11643416     0.37000
H475        H  0.23817798  0.22434758  0.06492832     0.17300
O476        O  0.27600938  0.29551469  0.03398530    -0.59600
H477        H  0.37851948  0.32607672  0.11366251     0.17300
O478        O  0.34208061  0.25501003  0.14410343    -0.59700
H479        H  0.33819118  0.26963557  0.16346364     0.44300
H480        H  0.28950543  0.29316241  0.01340549     0.44300
C481        C  0.40850857  0.36861603  0.02676112    -0.04800
C482        C  0.40686312  0.37796440  0.49263828    -0.32200
C483        C  0.42551796  0.36629621  0.46785830     0.37100
C484        C  0.44737759  0.34627786  0.47732926    -0.05100
C485        C  0.44854955  0.33637372  0.01124810    -0.32100
C486        C  0.42897054  0.34702467  0.03594793     0.37000
H487        H  0.39113188  0.39454590  0.48534476     0.17300
O488        O  0.42423490  0.37648903  0.43481168    -0.59600
H489        H  0.46484129  0.32032562  0.01849262     0.17300
O490        O  0.43057464  0.33691811  0.06895716    -0.59700
H491        H  0.46070759  0.35109214  0.07564126     0.44300
H492        H  0.39521931  0.35668108  0.42647394     0.44300
C493        C  0.65266502  0.63866226  0.11380650    -0.04800
C494        C  0.68627138  0.66701009  0.09443384    -0.32200
C495        C  0.72655208  0.69103660  0.10919498     0.37100
C496        C  0.73343903  0.68647338  0.14373904    -0.05100
C497        C  0.70019625  0.65564315  0.16215720    -0.32100
C498        C  0.66001399  0.63224659  0.14757763     0.37000
H499        H  0.68081723  0.67215876  0.06839521     0.17300
O500        O  0.75815246  0.72058097  0.09019769    -0.59600
H501        H  0.70473267  0.65105830  0.18855411     0.17300
O502        O  0.62781135  0.60360582  0.16670392    -0.59700
H503        H  0.61998765  0.62023449  0.18123400     0.44300
H504        H  0.77172534  0.70615788  0.08017770     0.44300
C505        C  0.61315319  0.57808587  0.05230763    -0.04800
C506        C  0.63546267  0.55988701  0.06498196    -0.32200
C507        C  0.65625503  0.54735788  0.04301874     0.37100
C508        C  0.65528228  0.55337707  0.00797127    -0.05100
C509        C  0.63357356  0.57219736  0.99541858    -0.32100
C510        C  0.61245426  0.58437124  0.01733644     0.37000
H511        H  0.63618494  0.55492664  0.09185854     0.17300
O512        O  0.67708284  0.52874606  0.05590224    -0.59600
H513        H  0.63209341  0.57645361  0.46857945     0.17300
O514        O  0.59115104  0.60245997  0.00442646    -0.59700
H515        H  0.61118517  0.63297596  0.00636210     0.44300
H516        H  0.70700001  0.55116790  0.05724433     0.44300
C517        C  0.51665070  0.53918262  0.05777533    -0.04800
C518        C  0.51659816  0.50214913  0.06376077    -0.32200
C519        C  0.47945509  0.46335374  0.06064762     0.37100
C520        C  0.44177955  0.46098992  0.05009964    -0.05100
C521        C  0.44306671  0.49785805  0.04053639    -0.32100
C522        C  0.48001177  0.53672779  0.04450113     0.37000
H523        H  0.54411657  0.50335825  0.07476969     0.17300
O524        O  0.47962259  0.42886132  0.07201508    -0.59600
H525        H  0.41453529  0.49683127  0.03240632     0.17300
O526        O  0.47897000  0.57233886  0.03829932    -0.59700
H527        H  0.49198723  0.58180898  0.01600055     0.44300
H528        H  0.47301373  0.42722116  0.09628992     0.44300
N529        N  0.59177449  0.59097218  0.57485541    -0.02800
C530        C  0.60928131  0.61959783  0.60041233    -0.00200
C531        C  0.57959219  0.62628533  0.61475328    -0.23100
C532        C  0.54236414  0.60042334  0.59765491    -0.23300
C533        C  0.55050540  0.57862987  0.57349177    -0.00300
H534        H  0.58414670  0.64641723  0.63626559     0.13500
H535        H  0.51199662  0.59538436  0.60420559     0.13500
N536        N  0.39049564  0.38276742  0.55159305    -0.02800
C537        C  0.35271739  0.35891128  0.56589446    -0.00200
C538        C  0.33879215  0.38381228  0.57928081    -0.23100
C539        C  0.36887204  0.42441045  0.57294413    -0.23300
C540        C  0.40037685  0.42301914  0.55601546    -0.00300
H541        H  0.31093919  0.37365130  0.59382688     0.13500
H542        H  0.36894188  0.45204716  0.58162821     0.13500
N543        N  0.46869164  0.33568106  0.95294433    -0.02800
C544        C  0.45093057  0.30585008  0.92822168    -0.00200
C545        C  0.48114846  0.30046431  0.91318033    -0.23100
C546        C  0.51866824  0.32775529  0.92932803    -0.23300
C547        C  0.51023328  0.34924658  0.95347470    -0.00300
H548        H  0.47659214  0.27994676  0.89195502     0.13500
H549        H  0.54918027  0.33323905  0.92270761     0.13500
N550        N  0.67486621  0.53852216  0.98534077    -0.02800
C551        C  0.71196866  0.56186191  0.96998631    -0.00200
C552        C  0.72498189  0.53628060  0.95641959    -0.23100
C553        C  0.69479163  0.49590958  0.96350591    -0.23300
C554        C  0.66416832  0.49805645  0.98119903    -0.00300
H555        H  0.75176261  0.54572067  0.94067694     0.13500
H556        H  0.69347585  0.46800188  0.95389661     0.13500
N557        N  0.58762794  0.89682198  0.57337113    -0.02800
C558        C  0.60628637  0.88583248  0.59754873    -0.00200
C559        C  0.57651066  0.85061886  0.61370752    -0.23100
C560        C  0.53831047  0.83966078  0.59887234    -0.23300
C561        C  0.54597041  0.86866533  0.57421192    -0.00300
H562        H  0.58184188  0.83548173  0.63482740     0.13500
H563        H  0.50800231  0.81509264  0.60693290     0.13500
N564        N  0.38611026  0.90190731  0.54958224    -0.02800
C565        C  0.34783723  0.88729872  0.56302595    -0.00200
C566        C  0.33356424  0.84820079  0.57623274    -0.23100
C567        C  0.36396509  0.83837335  0.57072151    -0.23300
C568        C  0.39600829  0.87189468  0.55445100    -0.00300
H569        H  0.30528232  0.82995501  0.59025159     0.13500
H570        H  0.36389118  0.81094050  0.57958933     0.13500
N571        N  0.46606457  0.03105562  0.95403849    -0.02800
C572        C  0.44736667  0.04262501  0.93043316    -0.00200
C573        C  0.47696580  0.07772849  0.91412652    -0.23100
C574        C  0.51531044  0.08784903  0.92807632    -0.23300
C575        C  0.50783422  0.05842847  0.95237096    -0.00300
H576        H  0.47145341  0.09287151  0.89310541     0.13500
H577        H  0.54550588  0.11182268  0.91931742     0.13500
N578        N  0.66313074  0.01700290  0.97059980    -0.02800
C579        C  0.69919843  0.02871995  0.95423123    -0.00200
C580        C  0.71262036  0.06614725  0.93827378    -0.23100
C581        C  0.68409671  0.07805738  0.94508559    -0.23300
C582        C  0.65388535  0.04732672  0.96480302    -0.00300
H583        H  0.73907734  0.08189046  0.92188713     0.13500
H584        H  0.68397818  0.10488891  0.93495683     0.13500
In585      In  0.83940832  0.77378796  0.69795704     1.36900
C586        C  0.84662828  0.77708188  0.76514617     0.78300
O587        O  0.87404750  0.73864850  0.69855505    -0.60200
O588        O  0.90163511  0.79670627  0.67388031    -0.51100
C589        C  0.77296027  0.71611084  0.66214491     0.70900
O590        O  0.77767048  0.71414022  0.69352683    -0.45900
C591        C  0.83326391  0.84122183  0.68845320     0.75600
O592        O  0.81669322  0.74667916  0.74924982    -0.57800
O593        O  0.86096072  0.83650948  0.67479460    -0.47900
O594        O  0.87279828  0.80568181  0.74678574    -0.54200
C595        C  0.90522458  0.76652208  0.68340713     0.85800
O596        O  0.80359362  0.74670454  0.64859623    -0.56100
O597        O  0.80806698  0.81105780  0.70607762    -0.59400
In598      In  0.01815715  0.77086305  0.68096886     1.36900
C599        C  0.02693843  0.77426724  0.74853950     0.78300
O600        O  0.08863275  0.80985755  0.68065168    -0.60200
O601        O  0.05445697  0.83371748  0.65602795    -0.51100
C602        C  0.00803772  0.70784786  0.64017858     0.70900
O603        O  0.02315542  0.71407930  0.66986460    -0.45900
C604        C  0.94405437  0.76583112  0.67972204     0.75600
O605        O  0.02479337  0.74482069  0.73095961    -0.57800
O606        O  0.97591954  0.79512152  0.66622442    -0.47900
O607        O  0.02459947  0.80152815  0.73169195    -0.54200
C608        C  0.08976238  0.84006273  0.66566213     0.85800
O609        O  0.99955885  0.73498558  0.63073605    -0.56100
O610        O  0.94926925  0.73764604  0.69203340    -0.59400
In611      In  0.83700324  0.95357735  0.69075075     1.36900
C612        C  0.84476045  0.95845106  0.75813267     0.78300
O613        O  0.80643141  0.88537685  0.70232996    -0.60200
O614        O  0.85848797  0.91118011  0.67012782    -0.51100
C615        C  0.77095286  0.94545831  0.65475114     0.70900
O616        O  0.77754834  0.95518624  0.68572901    -0.45900
C617        C  0.90410296  0.02696663  0.67616758     0.75600
O618        O  0.81326232  0.95517339  0.74249823    -0.57800
O619        O  0.89864991  0.99275345  0.66498171    -0.47900
O620        O  0.87254499  0.96008034  0.73939201    -0.54200
C621        C  0.83216119  0.87989521  0.68622817     0.85800
O622        O  0.79922928  0.94125458  0.64155150    -0.56100
O623        O  0.87400937  0.02388950  0.69259961    -0.59400
In624      In  0.01865127  0.13666130  0.67597149     1.36900
C625        C  0.02569953  0.14221132  0.74342748     0.78300
O626        O  0.95010475  0.09996594  0.68736234    -0.60200
O627        O  0.97504412  0.06983158  0.65857256    -0.51100
C628        C  0.00987118  0.19090911  0.63715940     0.70900
O629        O  0.02431098  0.19887098  0.66705636    -0.45900
C630        C  0.09104392  0.14121329  0.66195288     0.75600
O631        O  0.02410302  0.16941126  0.72578981    -0.57800
O632        O  0.05610695  0.11114841  0.65180231    -0.47900
O633        O  0.02364951  0.11232507  0.72668442    -0.54200
C634        C  0.94373002  0.06676018  0.67316137     0.85800
O635        O  0.00160301  0.15551254  0.62629115    -0.56100
O636        O  0.08912589  0.17005416  0.67689425    -0.59400
In637      In  0.20033943  0.13785311  0.66340766     1.36900
C638        C  0.20654629  0.14290329  0.73060991     0.78300
O639        O  0.16442721  0.17035257  0.67225043    -0.60200
O640        O  0.13268618  0.11138896  0.64675451    -0.51100
C641        C  0.25556367  0.19819540  0.62364648     0.70900
O642        O  0.26405787  0.19269533  0.65338519    -0.45900
C643        C  0.20436245  0.06899632  0.65325250     0.75600
O644        O  0.23157847  0.17226664  0.71220791    -0.57800
O645        O  0.17533581  0.07303207  0.64044794    -0.47900
O646        O  0.17825406  0.11121741  0.71474644    -0.54200
C647        C  0.13049033  0.14134757  0.65944468     0.85800
O648        O  0.21918901  0.17101941  0.61327854    -0.56100
O649        O  0.23270470  0.10113907  0.66854055    -0.59400
In650      In  0.19826946  0.95568698  0.66443803     1.36900
C651        C  0.20612027  0.95954567  0.73159315     0.78300
O652        O  0.23136950  0.02562693  0.66932885    -0.60200
O653        O  0.17414632  0.99540465  0.64113166    -0.51100
C654        C  0.25100202  0.94871117  0.62309052     0.70900
O655        O  0.26096490  0.96417580  0.65254420    -0.45900
C656        C  0.12877830  0.88045672  0.66245407     0.75600
O657        O  0.23307840  0.95928611  0.71288483    -0.57800
O658        O  0.13009072  0.91203332  0.64962185    -0.47900
O659        O  0.17520213  0.95751339  0.71604474    -0.54200
C660        C  0.20367915  0.02920079  0.65365070     0.85800
O661        O  0.21417640  0.93837674  0.61392995    -0.56100
O662        O  0.16325940  0.88698488  0.67464229    -0.59400
In663      In  0.85899587  0.78379231  0.86922096     1.36900
C664        C  0.85081066  0.77922777  0.80208604     0.78300
O665        O  0.82384267  0.81828144  0.86888235    -0.60200
O666        O  0.88666070  0.85128844  0.88722828    -0.51100
C667        C  0.80701249  0.72200847  0.90944034     0.70900
O668        O  0.79755303  0.72604572  0.87956805    -0.43500
C669        C  0.92771622  0.77838281  0.87204931     0.75600
O670        O  0.82445927  0.75115758  0.82074012    -0.57800
O671        O  0.92546398  0.80673914  0.88780622    -0.47900
O672        O  0.88123610  0.80944557  0.81768146    -0.54200
C673        C  0.85458313  0.85278866  0.87877755     0.85800
O674        O  0.84235332  0.75147965  0.91975906    -0.56100
O675        O  0.89444406  0.75199547  0.85662828    -0.59400
In676      In  0.03873905  0.78307693  0.85323750     1.36900
C677        C  0.03146757  0.77700315  0.78564591     0.78300
O678        O  0.96854238  0.75091806  0.85083174    -0.60200
O679        O  0.00136817  0.80568296  0.88152351    -0.51100
C680        C  0.04877410  0.73010027  0.89248683     0.70900
O681        O  0.03247849  0.72073901  0.86315179    -0.45900
C682        C  0.11189620  0.85455636  0.85500206     0.75600
O683        O  0.03644752  0.75167206  0.80318468    -0.57800
O684        O  0.07926325  0.85145085  0.86698551    -0.47900
O685        O  0.03047522  0.80522020  0.80254915    -0.54200
C686        C  0.96667853  0.77779025  0.86892498     0.85800
O687        O  0.05807946  0.76608869  0.90251893    -0.56100
O688        O  0.10768259  0.82078607  0.84396228    -0.59400
In689      In  0.85657333  0.96381655  0.86273136     1.36900
C690        C  0.84875367  0.95994425  0.79518955     0.78300
O691        O  0.89122546  0.03296568  0.85309202    -0.60200
O692        O  0.92421704  0.00815976  0.87853588    -0.51100
C693        C  0.80052688  0.96874286  0.90145471     0.70900
O694        O  0.79279117  0.95373202  0.87184599    -0.45900
C695        C  0.85406853  0.89201019  0.87669839     0.75600
O696        O  0.82220180  0.96058317  0.81405056    -0.57800
O697        O  0.88422612  0.92714276  0.88626784    -0.47900
O698        O  0.87903626  0.96067392  0.81073490    -0.54200
C699        C  0.92562707  0.03965280  0.86555370     0.85800
O700        O  0.83696185  0.97968178  0.91232921    -0.56100
O701        O  0.82449417  0.89352465  0.86217685    -0.59400
In702      In  0.03707837  0.14880110  0.84784452     1.36900
C703        C  0.02962529  0.14484259  0.78048193     0.78300
O704        O  0.10474119  0.18000595  0.83449522    -0.60200
O705        O  0.08118516  0.12847900  0.86741588    -0.51100
C706        C  0.04778148  0.21304757  0.88671812     0.70900
O707        O  0.03311413  0.20629996  0.85686690    -0.45900
C708        C  0.96482288  0.07993233  0.86245946     0.75600
O709        O  0.03252798  0.17493692  0.79762391    -0.57800
O710        O  0.99997866  0.08557016  0.87171274    -0.47900
O711        O  0.03047599  0.11697972  0.79770053    -0.54200
C712        C  0.11175261  0.15531843  0.85094783     0.85800
O713        O  0.05494824  0.18550565  0.89742394    -0.56100
O714        O  0.96637534  0.11062406  0.84795684    -0.59400
In715      In  0.21731071  0.14884094  0.83458808     1.36900
C716        C  0.21015099  0.14517379  0.76755039     0.78300
O717        O  0.24877992  0.11190763  0.82627815    -0.60200
O718        O  0.19353328  0.08441081  0.85492972    -0.51100
C719        C  0.28554129  0.20777450  0.86818706     0.70900
O720        O  0.27915496  0.20808872  0.83692795    -0.45900
C721        C  0.15118926  0.15567890  0.84839277     0.75600
O722        O  0.23886881  0.17652376  0.78350793    -0.57800
O723        O  0.15805319  0.12972778  0.86290937    -0.47900
O724        O  0.18490451  0.11576337  0.78582107    -0.54200
C725        C  0.22184810  0.08036952  0.84165922     0.85800
O726        O  0.25538543  0.17821139  0.88313332    -0.56100
O727        O  0.17960304  0.18006388  0.82914084    -0.59400
In728      In  0.21699368  0.96783284  0.83575279     1.36900
C729        C  0.21021226  0.96224017  0.76854490     0.78300
O730        O  0.18197611  0.89775575  0.83684812    -0.60200
O731        O  0.15442412  0.92902128  0.86002877    -0.51100
C732        C  0.28275109  0.97757302  0.87237038     0.70900
O733        O  0.27462739  0.96329267  0.84248008    -0.45900
C734        C  0.22192447  0.04117104  0.84183175     0.75600
O735        O  0.24213760  0.96705172  0.78449352    -0.57800
O736        O  0.19499740  0.00925229  0.85695833    -0.47900
O737        O  0.18194203  0.96022161  0.78686589    -0.54200
C738        C  0.15072786  0.89470397  0.85134944     0.85800
O739        O  0.25593889  0.98503560  0.88414699    -0.56100
O740        O  0.24752768  0.03611112  0.82506283    -0.59400
N741        N  0.09799521  0.39468108  0.96850073    -0.02800
C742        C  0.11281267  0.37431178  0.95019716    -0.00200
C743        C  0.15144609  0.40246245  0.93756002    -0.23100
C744        C  0.16082049  0.44145438  0.94855007    -0.23300
C745        C  0.12740070  0.43594356  0.96734578    -0.00300
H746        H  0.16962040  0.39558724  0.92048242     0.13500
H747        H  0.18777886  0.47086785  0.94161307     0.13500
N748        N  0.10002694  0.60008508  0.97143094    -0.02800
C749        C  0.11399707  0.63553612  0.95372607    -0.00200
C750        C  0.15252738  0.64736722  0.94047077    -0.23100
C751        C  0.16255518  0.61818522  0.95053413    -0.23300
C752        C  0.12967423  0.58932877  0.96952046    -0.00300
H753        H  0.17015184  0.67291525  0.92356720     0.13500
H754        H  0.18944792  0.61656789  0.94274813     0.13500
N755        N  0.96250413  0.32427694  0.55878299    -0.02800
C756        C  0.94701013  0.28707133  0.57427659    -0.00200
C757        C  0.90649052  0.27276121  0.58407127    -0.23100
C758        C  0.89657595  0.30200968  0.57401217    -0.23300
C759        C  0.93145347  0.33332888  0.55840419    -0.00300
H760        H  0.88697642  0.24502254  0.59835160     0.13500
H761        H  0.86787810  0.30154993  0.57925130     0.13500
N762        N  0.96073999  0.52735595  0.55768881    -0.02800
C763        C  0.94474308  0.54832753  0.57351900    -0.00200
C764        C  0.90451888  0.52067026  0.58358953    -0.23100
C765        C  0.89557750  0.48134817  0.57375333    -0.23300
C766        C  0.93075511  0.48619359  0.55811316    -0.00300
H767        H  0.88471782  0.52805532  0.59814936     0.13500
H768        H  0.86743944  0.45219268  0.57929920     0.13500
C769        C  0.93610995  0.37417107  0.54922580    -0.04800
C770        C  0.97163906  0.41143154  0.56076774    -0.32200
C771        C  0.97191375  0.44922029  0.56117598     0.37100
C772        C  0.93637606  0.45035433  0.54947867    -0.05100
C773        C  0.90247706  0.41380799  0.53493396    -0.32100
C774        C  0.90227881  0.37608284  0.53453082     0.37000
H775        H  0.99780099  0.41071221  0.57245315     0.17300
O776        O  0.00547498  0.48371243  0.57616051    -0.59600
H777        H  0.87499477  0.41399170  0.52552621     0.17300
O778        O  0.86766682  0.34070189  0.52162943    -0.59700
H779        H  0.87607705  0.33565698  0.49925681     0.44300
H780        H  0.99812905  0.48315286  0.60014831     0.44300
C781        C  0.06480294  0.58199353  0.99312727    -0.04800
C782        C  0.02405337  0.55884248  0.97942134    -0.32200
C783        C  0.98975904  0.54039022  0.50065534     0.37100
C784        C  0.99606996  0.54577421  0.53597541    -0.05100
C785        C  0.03687970  0.56970688  0.54961534    -0.32100
C786        C  0.07118300  0.58753527  0.52838761     0.37000
H787        H  0.01898724  0.55459414  0.95231892     0.17300
O788        O  0.94998954  0.51816511  0.48676738    -0.59600
H789        H  0.04213031  0.57379875  0.57670343     0.17300
O790        O  0.11094853  0.61020236  0.54222673    -0.59700
H791        H  0.11918721  0.63986177  0.53965409     0.44300
H792        H  0.94545171  0.49011067  0.48131210     0.44300
C793        C  0.06354942  0.37598638  0.99111691    -0.04800
C794        C  0.07169345  0.38190628  0.52615414    -0.32200
C795        C  0.03878247  0.36482760  0.54887984     0.37100
C796        C  0.99720665  0.34182523  0.53649156    -0.05100
C797        C  0.98909243  0.33597254  0.50152505    -0.32100
C798        C  0.02193074  0.35240324  0.47883291     0.37000
H799        H  0.10373765  0.39991784  0.53577295     0.17300
O800        O  0.04739025  0.37092095  0.58297878    -0.59600
H801        H  0.95701549  0.31848086  0.49190259     0.17300
O802        O  0.01309173  0.34750539  0.94473922    -0.59700
H803        H  0.99956721  0.31709165  0.93993364     0.44300
H804        H  0.05587474  0.40043498  0.58766528     0.44300
C805        C  0.12225071  0.47146077  0.97774424    -0.04800
C806        C  0.15730641  0.50781523  0.99124976    -0.32200
C807        C  0.15849096  0.54595254  0.99187692     0.37100
C808        C  0.12429210  0.54835129  0.97879300    -0.05100
C809        C  0.08765838  0.51134425  0.96842668    -0.32100
C810        C  0.08650974  0.47314447  0.96759747     0.37000
H811        H  0.18506925  0.50722382  0.49918234     0.17300
O812        O  0.19453613  0.58130261  0.50289512    -0.59600
H813        H  0.06126661  0.51253104  0.95773464     0.17300
O814        O  0.05191478  0.43887263  0.95345795    -0.59700
H815        H  0.05789548  0.43919083  0.92913878     0.44300
H816        H  0.18775238  0.58868333  0.52504920     0.44300
C817        C  0.08843964  0.33051629  0.93785753    -0.04800
C818        C  0.09096152  0.29902738  0.95491467    -0.32200
C819        C  0.07575070  0.25958717  0.93944113     0.37100
C820        C  0.05801257  0.25146567  0.90630839    -0.05100
C821        C  0.05367956  0.28256535  0.89020936    -0.32100
C822        C  0.06920189  0.32186958  0.90551325     0.37000
H823        H  0.10655820  0.30567370  0.97953841     0.17300
O824        O  0.08058548  0.23019243  0.95618316    -0.59600
H825        H  0.04011688  0.27723422  0.86486952     0.17300
O826        O  0.06675700  0.35231734  0.88814929    -0.59700
H827        H  0.09210507  0.36582129  0.87422570     0.44300
H828        H  0.05443011  0.21382430  0.96884035     0.44300
C829        C  0.05847198  0.70203760  0.91215120    -0.04800
C830        C  0.05118026  0.66464554  0.89684267    -0.32200
C831        C  0.06618316  0.64077198  0.91191585     0.37100
C832        C  0.08880991  0.65396681  0.94282905    -0.05100
C833        C  0.09389713  0.68970686  0.95938668    -0.32100
C834        C  0.07883990  0.71372545  0.94432466     0.37000
H835        H  0.03569987  0.65489062  0.87218626     0.17300
O836        O  0.06192471  0.60657006  0.89482966    -0.59600
H837        H  0.11162250  0.70030490  0.98309937     0.17300
O838        O  0.08566535  0.74933265  0.96068128    -0.59700
H839        H  0.11458971  0.77117162  0.95505730     0.44300
H840        H  0.03182489  0.58490733  0.89596010     0.44300
C841        C  0.00095215  0.21960459  0.61752027    -0.04800
C842        C  0.97858094  0.20616019  0.58640248    -0.32200
C843        C  0.96338704  0.22959615  0.57049593     0.37100
C844        C  0.97114728  0.26742492  0.58526125    -0.05100
C845        C  0.99556766  0.28212533  0.61514950    -0.32100
C846        C  0.01071709  0.25885562  0.63113068     0.37000
H847        H  0.97087451  0.17634653  0.57525460     0.17300
O848        O  0.93969497  0.21457752  0.54116833    -0.59600
H849        H  0.00085085  0.31064701  0.62727882     0.17300
O850        O  0.03278477  0.27369942  0.66118538    -0.59700
H851        H  0.06255517  0.29066095  0.65486766     0.44300
H852        H  0.91072780  0.19521558  0.54847067     0.44300
C853        C  0.96844251  0.59271662  0.58496899    -0.04800
C854        C  0.99648640  0.60420674  0.61269774    -0.32200
C855        C  0.01171886  0.64271011  0.62965799     0.37100
C856        C  0.99862254  0.67049182  0.61914824    -0.05100
C857        C  0.97266673  0.65999414  0.58992969    -0.32100
C858        C  0.95755654  0.62143315  0.57297148     0.37000
H859        H  0.00461802  0.58216513  0.62258543     0.17300
O860        O  0.03848346  0.65227688  0.65706716    -0.59600
H861        H  0.96231172  0.68078353  0.58115486     0.17300
O862        O  0.93033025  0.61114692  0.54581110    -0.59700
H863        H  0.94802513  0.61805447  0.52563487     0.44300
H864        H  0.02023789  0.63758681  0.67626411     0.44300
C865        C  0.76996820  0.97541377  0.92015348    -0.04800
C866        C  0.73187112  0.96519476  0.90377256    -0.32200
C867        C  0.70629446  0.97911701  0.91671648     0.37100
C868        C  0.71780769  0.00273928  0.94705782    -0.05100
C869        C  0.75400813  0.01014076  0.96498229    -0.32100
C870        C  0.77984382  0.99625758  0.95194434     0.37000
H871        H  0.72315087  0.94880499  0.87954414     0.17300
O872        O  0.67144803  0.97190526  0.89829640    -0.59600
H873        H  0.76370211  0.02904886  0.98800217     0.17300
O874        O  0.81608519  0.00593959  0.96930501    -0.59700
H875        H  0.80833139  0.98167583  0.98398410     0.44300
H876        H  0.68137758  0.99592996  0.88301149     0.44300
C877        C  0.32190778  0.98722928  0.89087033    -0.04800
C878        C  0.35137700  0.98086936  0.87433992    -0.32200
C879        C  0.39171845  0.99670369  0.88823490     0.37100
C880        C  0.40292784  0.01849079  0.91941995    -0.05100
C881        C  0.37284622  0.02225525  0.93726335    -0.32100
C882        C  0.33246723  0.00676803  0.92323334     0.37000
H883        H  0.34397251  0.96555930  0.84968124     0.17300
O884        O  0.42054070  0.99199396  0.87064110    -0.59600
H885        H  0.38137256  0.03923703  0.96122581     0.17300
O886        O  0.30464852  0.01340548  0.94040226    -0.59700
H887        H  0.28886408  0.98832763  0.95441085     0.44300
H888        H  0.43272155  0.01540635  0.85458474     0.44300
C889        C  0.54133269  0.05166534  0.96590933    -0.04800
C890        C  0.53908473  0.01358586  0.95891050    -0.32200
C891        C  0.57495494  0.01021352  0.96168093     0.37100
C892        C  0.61374212  0.04525238  0.97193276    -0.05100
C893        C  0.61492265  0.08205648  0.98202944    -0.32100
C894        C  0.57922404  0.08555655  0.97879063     0.37000
H895        H  0.51052348  0.98753686  0.94808668     0.17300
O896        O  0.57284183  0.97446580  0.94995603    -0.59600
H897        H  0.64443088  0.10928129  0.99003255     0.17300
O898        O  0.58208018  0.12286944  0.98666121    -0.59700
H899        H  0.59808359  0.14193090  0.96817772     0.44300
H900        H  0.55647892  0.95296824  0.96682570     0.44300
C901        C  0.32769486  0.91184118  0.57064763    -0.04800
C902        C  0.34541764  0.94253615  0.59637597    -0.32200
C903        C  0.32157452  0.95686106  0.61228678     0.37100
C904        C  0.27924461  0.94075763  0.60227729    -0.05100
C905        C  0.26269199  0.91259795  0.57455308    -0.32100
C906        C  0.28646258  0.89785493  0.55903772     0.37000
H907        H  0.37670414  0.95283552  0.60620927     0.17300
O908        O  0.33947417  0.98523886  0.63861338    -0.59600
H909        H  0.23031830  0.89972294  0.56636982     0.17300
O910        O  0.26802933  0.86731165  0.53433005    -0.59700
H911        H  0.27612915  0.88242281  0.51269194     0.44300
H912        H  0.33818378  0.96862524  0.65852050     0.44300
C913        C  0.44540833  0.99850462  0.97812983    -0.04800
C914        C  0.42284356  0.95662963  0.96732583    -0.32200
C915        C  0.40319613  0.92482886  0.49082800     0.37100
C916        C  0.40528467  0.93479688  0.52549466    -0.05100
C917        C  0.42663392  0.97679353  0.53613500    -0.32100
C918        C  0.44701559  0.00857314  0.01267315     0.37000
H919        H  0.42103255  0.94871978  0.94071175     0.17300
O920        O  0.38109637  0.88398491  0.47975346    -0.59600
H921        H  0.42824386  0.98485662  0.56265737     0.17300
O922        O  0.46741146  0.04952909  0.02344772    -0.59700
H923        H  0.49594070  0.05613175  0.03044294     0.44300
H924        H  0.40233235  0.87564542  0.47719598     0.44300
C925        C  0.65104380  0.90941836  0.60836340    -0.04800
C926        C  0.68110358  0.90677009  0.58939951    -0.32200
C927        C  0.72140215  0.92064263  0.60325186     0.37100
C928        C  0.73197262  0.93746848  0.63656469    -0.05100
C929        C  0.70264510  0.94293217  0.65427761    -0.32100
C930        C  0.66244067  0.92865687  0.64062045     0.37000
H931        H  0.67254423  0.89165712  0.56464653     0.17300
O932        O  0.74899645  0.91485740  0.58490491    -0.59600
H933        H  0.71003403  0.95632457  0.67964703     0.17300
O934        O  0.63390120  0.93242067  0.65946747    -0.59700
H935        H  0.62173719  0.90803301  0.67456396     0.44300
H936        H  0.76390739  0.94014601  0.57098075     0.44300
C937        C  0.60803393  0.92749568  0.54792962    -0.04800
C938        C  0.60716398  0.91423846  0.51454506    -0.32200
C939        C  0.62623717  0.94329423  0.48892326     0.37100
C940        C  0.64529276  0.98622765  0.99650387    -0.05100
C941        C  0.64596616  0.99939479  0.53001533    -0.32100
C942        C  0.62796530  0.97031563  0.55576724     0.37000
H943        H  0.59152178  0.88114400  0.50844762     0.17300
O944        O  0.62367771  0.92946658  0.95629575    -0.59600
H945        H  0.66054238  0.03240833  0.53608780     0.17300
O946        O  0.62834090  0.98377260  0.58817480    -0.59700
H947        H  0.65689390  0.99333578  0.59744073     0.44300
H948        H  0.64010503  0.91524780  0.95623989     0.44300
C949        C  0.51234701  0.87429548  0.55920619    -0.04800
C950        C  0.51141091  0.91033791  0.56795103    -0.32200
C951        C  0.47438179  0.91140207  0.56407476     0.37100
C952        C  0.43786496  0.87657232  0.55004087    -0.05100
C953        C  0.44012467  0.84211720  0.53828947    -0.32100
C954        C  0.47683943  0.84061408  0.54312898     0.37000
H955        H  0.53810416  0.93609904  0.58109863     0.17300
O956        O  0.47314328  0.94470691  0.57757345    -0.59600
H957        H  0.41238625  0.81499865  0.52754368     0.17300
O958        O  0.47719396  0.80536494  0.53349683    -0.59700
H959        H  0.46216656  0.78476034  0.55136548     0.44300
H960        H  0.46325828  0.93660703  0.60094014     0.44300
C961        C  0.73089618  0.60599082  0.96024825    -0.04800
C962        C  0.76988148  0.63601522  0.97446730    -0.32200
C963        C  0.79424949  0.67496316  0.95932532     0.37100
C964        C  0.77963911  0.68435977  0.92940175    -0.05100
C965        C  0.73975072  0.65474604  0.91611075    -0.32100
C966        C  0.71550439  0.61583465  0.93119822     0.37000
H967        H  0.78260227  0.62826308  0.99619940     0.17300
O968        O  0.83324642  0.70249391  0.97291472    -0.59600
H969        H  0.72806728  0.66084055  0.89287613     0.17300
O970        O  0.67899954  0.58585552  0.91530891    -0.59700
H971        H  0.66053345  0.59779777  0.91405295     0.44300
H972        H  0.85227156  0.69435708  0.96268194     0.44300
C973        C  0.40714254  0.28544462  0.91521877    -0.04800
C974        C  0.40039906  0.28937287  0.88086304    -0.32200
C975        C  0.36051559  0.26623205  0.86578645     0.37100
C976        C  0.32621289  0.23785326  0.88505630    -0.05100
C977        C  0.33258466  0.23545006  0.91995535    -0.32100
C978        C  0.37280434  0.25893244  0.93505642     0.37000
H979        H  0.42660226  0.30967892  0.86531546     0.17300
O980        O  0.35614402  0.26974283  0.83167317    -0.59600
H981        H  0.30676444  0.21390025  0.93526097     0.17300
O982        O  0.37847968  0.25393055  0.96865127    -0.59700
H983        H  0.38610158  0.23204109  0.96922638     0.44300
H984        H  0.35096126  0.29319757  0.82941347     0.44300
C985        C  0.54387083  0.38747303  0.97089983    -0.04800
C986        C  0.57676855  0.38584472  0.98737218    -0.32200
C987        C  0.61536086  0.42244719  0.99421072     0.37100
C988        C  0.62133019  0.46142608  0.98470046    -0.05100
C989        C  0.58707991  0.46329319  0.97130861    -0.32100
C990        C  0.54854296  0.42671671  0.96435972     0.37000
H991        H  0.57359747  0.35587034  0.99259063     0.17300
O992        O  0.64775504  0.41975677  0.00867139    -0.59600
H993        H  0.59123599  0.49271210  0.96289477     0.17300
O994        O  0.51788287  0.42950136  0.94686856    -0.59700
H995        H  0.50728081  0.44209215  0.96311381     0.44300
H996        H  0.65619516  0.40647838  0.99120067     0.44300
C997        C  0.28460198  0.23534292  0.60391747    -0.04800
C998        C  0.26954945  0.24562188  0.57487802    -0.32200
C999        C  0.29329146  0.28486512  0.56011777     0.37100
C1000       C  0.33292543  0.31423307  0.57399239    -0.05100
C1001       C  0.34896909  0.30313903  0.60168584    -0.32100
C1002       C  0.32548059  0.26401065  0.61643423     0.37000
H1003       H  0.23817821  0.22434787  0.56492827     0.17300
O1004       O  0.27600895  0.29551489  0.53398593    -0.59600
H1005       H  0.37851958  0.32607685  0.61366250     0.17300
O1006       O  0.34208057  0.25501060  0.64410394    -0.59700
H1007       H  0.33819093  0.26963555  0.66346308     0.44300
H1008       H  0.28950532  0.29316261  0.51340468     0.44300
C1009       C  0.40850860  0.36861600  0.52676117    -0.04800
C1010       C  0.40686296  0.37796447  0.99263825    -0.32200
C1011       C  0.42551783  0.36629624  0.96785834     0.37100
C1012       C  0.44737760  0.34627795  0.97732940    -0.05100
C1013       C  0.44854948  0.33637367  0.51124797    -0.32100
C1014       C  0.42897056  0.34702468  0.53594792     0.37000
H1015       H  0.39113206  0.39454640  0.98534478     0.17300
O1016       O  0.42423478  0.37648892  0.93481167    -0.59600
H1017       H  0.46484101  0.32032535  0.51849229     0.17300
O1018       O  0.43057476  0.33691819  0.56895713    -0.59700
H1019       H  0.46070778  0.35109233  0.57564113     0.44300
H1020       H  0.39521918  0.35668096  0.92647396     0.44300
C1021       C  0.65266508  0.63866218  0.61380653    -0.04800
C1022       C  0.68627151  0.66701013  0.59443396    -0.32200
C1023       C  0.72655214  0.69103667  0.60919515     0.37100
C1024       C  0.73343903  0.68647337  0.64373921    -0.05100
C1025       C  0.70019628  0.65564306  0.66215732    -0.32100
C1026       C  0.66001409  0.63224669  0.64757766     0.37000
H1027       H  0.68081771  0.67215904  0.56839532     0.17300
O1028       O  0.75815234  0.72058125  0.59019799    -0.59600
H1029       H  0.70473261  0.65105836  0.68855428     0.17300
O1030       O  0.62781125  0.60360679  0.66670436    -0.59700
H1031       H  0.61998879  0.62023549  0.68123338     0.44300
H1032       H  0.77172571  0.70615773  0.58017745     0.44300
C1033       C  0.61315323  0.57808580  0.55230791    -0.04800
C1034       C  0.63546277  0.55988706  0.56498234    -0.32200
C1035       C  0.65625500  0.54735774  0.54301900     0.37100
C1036       C  0.65528240  0.55337705  0.50797151    -0.05100
C1037       C  0.63357376  0.57219738  0.49541897    -0.32100
C1038       C  0.61245443  0.58437124  0.51733675     0.37000
H1039       H  0.63618528  0.55492694  0.59185902     0.17300
O1040       O  0.67708201  0.52874531  0.55590222    -0.59600
H1041       H  0.63209263  0.57645298  0.96857890     0.17300
O1042       O  0.59115105  0.60245974  0.50442651    -0.59700
H1043       H  0.61118500  0.63297578  0.50636204     0.44300
H1044       H  0.70700117  0.55116845  0.55724431     0.44300
C1045       C  0.51665093  0.53918250  0.55777535    -0.04800
C1046       C  0.51659841  0.50214901  0.56376084    -0.32200
C1047       C  0.47945528  0.46335373  0.56064758     0.37100
C1048       C  0.44177974  0.46099009  0.55009965    -0.05100
C1049       C  0.44306692  0.49785820  0.54053646    -0.32100
C1050       C  0.48001198  0.53672781  0.54450121     0.37000
H1051       H  0.54411686  0.50335784  0.57476954     0.17300
O1052       O  0.47962253  0.42886125  0.57201504    -0.59600
H1053       H  0.41453558  0.49683152  0.53240628     0.17300
O1054       O  0.47897028  0.57233891  0.53829933    -0.59700
H1055       H  0.49198737  0.58180874  0.51600060     0.44300
H1056       H  0.47301359  0.42722123  0.59628997     0.44300
loop_ 
_geom_bond_atom_site_label_1 
_geom_bond_atom_site_label_2 
_geom_bond_distance 
_geom_bond_site_symmetry_2 
_ccdc_geom_bond_type 
N1            C5   1.357       .  A
N1            C2   1.353       .  A
N1          C505   1.439       .  S
C2            C3   1.381       .  A
C2          C493   1.474       .  S
C3            C4   1.374       .  A
C3            H6   1.082       .  S
C4            C5   1.385       .  A
C4            H7   1.082       .  S
C5          C517   1.481       .  S
N8           C12   1.359       .  A
N8            C9   1.357       .  A
N8          C481   1.439       .  S
C9           C10   1.380       .  A
C9          C472   1.476       .  S
C10          C11   1.373       .  A
C10          H13   1.082       .  S
C11          C12   1.384       .  A
C11          H14   1.082       .  S
C12         C520   1.488       .  S
N15          C19   1.356       .  A
N15          C16   1.355       .  A
N15         C484   1.435       .  S
C16          C17   1.382       .  A
C16         C445   1.478       .  S
C17          C18   1.375       .  A
C17          H20   1.082       .  S
C18          C19   1.382       .  A
C18          H21   1.082       .  S
C19         C457   1.482       .  S
N22          C26   1.356       .  A
N22          C23   1.356       .  A
N22        C1036   1.439       .  S
C23          C24   1.381       .  A
C23         C433   1.478       .  S
C24          C25   1.375       .  A
C24          H27   1.082       .  S
C25          C26   1.384       .  A
C25          H28   1.082       .  S
C26         C460   1.484       .  S
N29          C33   1.356       .  A
N29          C30   1.355       .  A
N29         C409   1.433       .  S
C30          C31   1.382       .  A
C30         C397   1.480       .  S
C31          C32   1.377       .  A
C31          H34   1.082       .  S
C32          C33   1.383       .  A
C32          H35   1.082       .  S
C33         C421   1.483       .  S
N36          C40   1.359       .  A
N36          C37   1.358       .  A
N36         C388   1.438       .  S
C37          C38   1.382       .  A
C37         C373   1.481       .  S
C38          C39   1.375       .  A
C38          H41   1.082       .  S
C39          C40   1.383       .  A
C39          H42   1.082       .  S
C40         C424   1.488       .  S
N43          C47   1.356       .  A
N43          C44   1.352       .  A
N43         C385   1.436   1_545  S
C44          C45   1.380       .  A
C44         C352   1.473       .  S
C45          C46   1.376       .  A
C45          H48   1.082       .  S
C46          C47   1.385       .  A
C46          H49   1.082       .  S
C47         C361   1.482       .  S
N50          C54   1.359       .  A
N50          C51   1.359       .  A
N50         C412   1.439   1_545  S
C51          C52   1.381       .  A
C51         C340   1.479       .  S
C52          C53   1.373       .  A
C52          H55   1.082       .  S
C53          C54   1.383       .  A
C53          H56   1.082       .  S
C54         C364   1.487       .  S
In57         O59   2.258       .  S
In57         O60   2.250       .  S
In57         O68   2.258       .  S
In57         O62   2.234       .  S
In57         O64   2.253       .  S
In57         O65   2.256       .  S
In57         O66   2.247       .  S
In57         O69   2.248       .  S
C58         C136   1.464       .  S
C58          O64   1.260       .  A
C58          O66   1.260       .  A
O59          C67   1.259       .  A
O60          C67   1.259       .  A
C61         C496   1.481       .  S
C61          O68   1.260       .  A
C61          O62   1.259       .  A
C63          C93   1.466       .  S
C63          O65   1.260       .  A
C63          O69   1.259       .  A
C67          C76   1.467       .  S
In70         O72   2.253       .  S
In70         O73   2.265       .  S
In70         O81   2.275   1_455  S
In70         O75   2.258       .  S
In70         O77   2.274       .  S
In70         O78   2.247   1_455  S
In70         O79   2.249       .  S
In70         O82   2.255   1_455  S
C71         C149   1.472       .  S
C71          O77   1.262       .  A
C71          O79   1.258       .  A
O72          C80   1.258       .  A
O73          C80   1.259       .  A
C74         C328   1.492   1_455  S
C74          O81   1.261   1_455  A
C74          O75   1.259       .  A
C76          O78   1.260       .  A
C76          O82   1.261       .  A
C80         C128   1.469       .  S
In83         O85   2.246       .  S
In83         O86   2.258       .  S
In83         O94   2.278       .  S
In83         O88   2.246       .  S
In83         O90   2.258       .  S
In83         O91   2.260       .  S
In83         O92   2.252       .  S
In83         O95   2.251   1_565  S
C84         C162   1.469       .  S
C84          O90   1.262       .  A
C84          O92   1.260       .  A
O85          C93   1.259       .  A
O86          C93   1.261       .  A
C87         C400   1.490       .  S
C87          O94   1.261       .  A
C87          O88   1.259       .  A
C89         C106   1.468       .  S
C89          O91   1.260   1_545  A
C89          O95   1.259       .  A
In96         O98   2.247   1_455  S
In96         O99   2.259   1_455  S
In96        O107   2.278       .  S
In96        O101   2.250       .  S
In96        O103   2.261       .  S
In96        O104   2.270       .  S
In96        O105   2.252       .  S
In96        O108   2.251       .  S
C97         C175   1.468       .  S
C97         O103   1.261       .  A
C97         O105   1.259       .  A
O98         C106   1.260       .  A
O99         C106   1.262       .  A
C100        C313   1.491       .  S
C100        O107   1.261       .  A
C100        O101   1.258       .  A
C102        C119   1.469       .  S
C102        O104   1.259       .  A
C102        O108   1.257       .  A
In109       O111   2.245       .  S
In109       O112   2.261       .  S
In109       O120   2.271       .  S
In109       O114   2.244       .  S
In109       O116   2.252       .  S
In109       O117   2.272       .  S
In109       O118   2.247       .  S
In109       O121   2.245       .  S
C110        C188   1.463       .  S
C110        O116   1.261       .  A
C110        O118   1.259       .  A
O111        C119   1.259       .  A
O112        C119   1.262       .  A
C113        C469   1.487       .  S
C113        O120   1.261       .  A
C113        O114   1.258       .  A
C115        C132   1.471       .  S
C115        O117   1.261       .  A
C115        O121   1.258       .  A
In122       O124   2.246   1_565  S
In122       O125   2.279       .  S
In122       O133   2.276       .  S
In122       O127   2.245       .  S
In122       O129   2.256       .  S
In122       O130   2.262       .  S
In122       O131   2.244       .  S
In122       O134   2.244       .  S
C123        C201   1.465       .  S
C123        O129   1.261       .  A
C123        O131   1.260       .  A
O124        C132   1.256       .  A
O125        C132   1.261   1_565  A
C126        C376   1.489       .  S
C126        O133   1.261       .  A
C126        O127   1.258       .  A
C128        O130   1.264       .  A
C128        O134   1.260       .  A
In135       O137   2.254       .  S
In135       O138   2.278       .  S
In135       O146   2.270       .  S
In135       O140   2.243       .  S
In135       O142   2.253       .  S
In135       O143   2.265       .  S
In135       O144   2.246       .  S
In135       O147   2.237       .  S
C136        O142   1.261       .  A
C136        O144   1.259       .  A
O137        C145   1.258       .  A
O138        C145   1.261       .  A
C139        C436   1.488       .  S
C139        O146   1.262       .  A
C139        O140   1.259       .  A
C141        C158   1.467       .  S
C141        O143   1.263       .  A
C141        O147   1.259       .  A
C145        C167   1.475       .  S
In148       O150   2.244   1_455  S
In148       O151   2.267       .  S
In148       O159   2.269       .  S
In148       O153   2.252       .  S
In148       O155   2.271       .  S
In148       O156   2.253       .  S
In148       O157   2.249       .  S
In148       O160   2.243       .  S
C149        O155   1.261       .  A
C149        O157   1.259       .  A
O150        C158   1.258       .  A
O151        C158   1.259   1_455  A
C152        C301   1.489       .  S
C152        O159   1.260       .  A
C152        O153   1.259       .  A
C154        C210   1.464       .  S
C154        O156   1.260       .  A
C154        O160   1.260       .  A
In161       O163   2.254   1_565  S
In161       O164   2.260   1_565  S
In161       O172   2.283       .  S
In161       O166   2.239       .  S
In161       O168   2.258       .  S
In161       O169   2.283       .  S
In161       O170   2.260       .  S
In161       O173   2.255       .  S
C162        O168   1.259       .  A
C162        O170   1.260       .  A
O163        C171   1.260       .  A
O164        C171   1.262       .  A
C165        C337   1.490       .  S
C165        O172   1.262       .  A
C165        O166   1.257       .  A
C167        O169   1.260       .  A
C167        O173   1.257       .  A
C171        C180   1.470       .  S
In174       O176   2.241       .  S
In174       O177   2.256       .  S
In174       O185   2.267       .  S
In174       O179   2.249       .  S
In174       O181   2.261       .  S
In174       O182   2.259   1_455  S
In174       O183   2.248       .  S
In174       O186   2.258   1_455  S
C175        O181   1.262       .  A
C175        O183   1.260       .  A
O176        C184   1.260       .  A
O177        C184   1.261       .  A
C178        C292   1.487       .  S
C178        O185   1.260       .  A
C178        O179   1.259       .  A
C180        O182   1.259       .  A
C180        O186   1.259       .  A
C184        C193   1.464       .  S
In187       O189   2.243       .  S
In187       O190   2.254       .  S
In187       O198   2.273       .  S
In187       O192   2.227       .  S
In187       O194   2.245       .  S
In187       O195   2.262       .  S
In187       O196   2.247       .  S
In187       O199   2.242       .  S
C188        O194   1.260       .  A
C188        O196   1.261       .  A
O189        C197   1.258       .  A
O190        C197   1.260       .  A
C191        C448   1.483       .  S
C191        O198   1.261       .  A
C191        O192   1.256       .  A
C193        O195   1.259       .  A
C193        O199   1.257       .  A
C197        C206   1.463       .  S
In200       O202   2.245       .  S
In200       O203   2.255       .  S
In200       O211   2.257       .  S
In200       O205   2.244       .  S
In200       O207   2.256       .  S
In200       O208   2.249   1_565  S
In200       O209   2.244       .  S
In200       O212   2.241   1_565  S
C201        O207   1.261       .  A
C201        O209   1.259       .  A
O202        C210   1.258       .  A
O203        C210   1.259       .  A
C204        C349   1.484       .  S
C204        O211   1.260       .  A
C204        O205   1.259       .  A
C206        O208   1.261       .  A
C206        O212   1.260       .  A
N213        C217   1.358       .  A
N213        C214   1.357       .  A
N213        C265   1.437       .  S
C214        C215   1.380       .  A
C214        C289   1.476       .  S
C215        C216   1.374       .  A
C215        H218   1.082       .  S
C216        C217   1.384       .  A
C216        H219   1.082       .  S
C217        C277   1.488       .  S
N220        C224   1.355       .  A
N220        C221   1.353       .  A
N220        C253   1.433       .  S
C221        C222   1.381       .  A
C221        C304   1.477       .  S
C222        C223   1.377       .  A
C222        H225   1.082       .  S
C223        C224   1.384       .  A
C223        H226   1.082       .  S
C224        C280   1.485       .  S
N227        C231   1.358       .  A
N227        C228   1.356       .  A
N227        C268   1.435       .  S
C228        C229   1.380       .  A
C228        C316   1.481       .  S
C229        C230   1.377       .  A
C229        H232   1.082       .  S
C230        C231   1.384       .  A
C230        H233   1.082       .  S
C231        C241   1.490       .  S
N234        C238   1.359       .  A
N234        C235   1.357       .  A
N234        C256   1.436       .  S
C235        C236   1.381       .  A
C235        C325   1.483       .  S
C236        C237   1.378       .  A
C236        H239   1.082       .  S
C237        C238   1.384       .  A
C237        H240   1.082       .  S
C238        C244   1.492       .  S
C241        C242   1.403       .  A
C241        C246   1.410       .  A
C242        C243   1.403       .  A
C242        H247   1.081       .  S
C243        C244   1.412       .  A
C243        O248   1.370   1_655  S
C244        C245   1.406       .  A
C245        C246   1.402       .  A
C245        H249   1.084       .  S
C246        O250   1.371       .  S
O248        H252   0.990   1_455  S
O250        H251   0.993   1_554  S
C253        C254   1.398       .  A
C253        C786   1.407       .  A
C254        C783   1.399   1_455  A
C254        H259   1.082       .  S
C255        C256   1.408       .  A
C255        C782   1.399   1_654  A
C255        O260   1.371   1_554  S
C256        C257   1.401   1_655  A
C257        C258   1.398       .  A
C257        H261   1.081       .  S
C258        C781   1.407   1_554  A
C258        O262   1.371       .  S
O260        H264   0.991       .  S
O262        H263   0.991       .  S
C265        C794   1.405       .  A
C265        C798   1.405       .  A
C266        C267   1.401       .  A
C266        C793   1.405   1_554  A
C266        H271   1.083       .  S
C267        C268   1.403   1_455  A
C267        O272   1.371       .  S
C268        C269   1.402       .  A
C269        C270   1.399   1_654  A
C269        H273   1.083   1_554  S
C270        C793   1.405       .  A
C270        O802   1.371       .  S
O272        H276   0.992       .  S
O274        C798   1.371       .  S
O274        H275   0.992   1_455  S
C277        C278   1.405       .  A
C277        C282   1.412       .  A
C278        C279   1.400       .  A
C278        H811   1.084       .  S
C279        C280   1.408       .  A
C279        O812   1.372       .  S
C280        C281   1.404       .  A
C281        C282   1.403       .  A
C281        H285   1.082       .  S
C282        O286   1.370       .  S
H283        C806   1.084       .  S
O284        C807   1.372   1_554  S
O284        H288   0.992       .  S
O286        H287   0.991       .  S
C289        C290   1.401       .  A
C289        C294   1.405       .  A
C290        C291   1.406       .  A
C290        H295   1.083       .  S
C291        C292   1.415       .  A
C291        O296   1.371       .  S
C292        C293   1.405       .  A
C293        C294   1.398       .  A
C293        H297   1.083       .  S
C294        O298   1.372       .  S
O296        H300   0.992       .  S
O298        H299   0.992       .  S
C301        C302   1.406       .  A
C301        C306   1.414       .  A
C302        C303   1.401       .  A
C302        H307   1.083       .  S
C303        C304   1.404       .  A
C303        O308   1.373       .  S
C304        C305   1.401       .  A
C305        C306   1.406       .  A
C305        H309   1.084       .  S
C306        O310   1.371       .  S
O308        H312   0.991       .  S
O310        H311   0.992       .  S
C313        C314   1.408   1_455  A
C313        C318   1.414       .  A
C314        C315   1.406       .  A
C314        H319   1.083       .  S
C315        C316   1.406       .  A
C315        O320   1.371       .  S
C316        C317   1.401       .  A
C317        C318   1.401   1_655  A
C317        H321   1.084   1_655  S
C318        O322   1.371       .  S
O320        H324   0.991       .  S
O322        H323   0.991       .  S
C325        C326   1.402       .  A
C325        C330   1.407       .  A
C326        C327   1.403   1_655  A
C326        H331   1.083   1_655  S
C327        C328   1.413   1_455  A
C327        O332   1.372       .  S
C328        C329   1.408       .  A
C329        C330   1.406       .  A
C329        H333   1.083       .  S
C330        O334   1.371       .  S
O332        H336   0.991       .  S
O334        H335   0.993       .  S
C337        C338   1.406       .  A
C337        C342   1.413       .  A
C338        C339   1.398       .  A
C338        H343   1.083       .  S
C339        C340   1.406   1_565  A
C339        O344   1.373       .  S
C340        C341   1.403       .  A
C341        C342   1.407   1_545  A
C341        H345   1.083       .  S
C342        O346   1.371   1_565  S
O344        H348   0.991       .  S
O346        H347   0.993   1_545  S
C349        C350   1.406       .  A
C349        C354   1.414   1_565  A
C350        C351   1.398       .  A
C350        H355   1.083       .  S
C351        C352   1.405   1_565  A
C351        O356   1.372       .  S
C352        C353   1.399       .  A
C353        C354   1.403       .  A
C353        H357   1.084       .  S
C354        O358   1.371       .  S
O356        H360   0.993   1_565  S
O358        H359   0.992   1_545  S
C361        C362   1.404       .  A
C361        C366   1.407       .  A
C362        C363   1.404       .  A
C362        H367   1.083   1_545  S
C363        C364   1.410       .  A
C363        O368   1.371   1_545  S
C364        C365   1.405       .  A
C365        C366   1.402       .  A
C365        H369   1.084       .  S
C366        O370   1.372       .  S
O368        H372   0.991       .  S
O370        H371   0.993       .  S
C373        C374   1.401       .  A
C373        C378   1.408       .  A
C374        C375   1.403       .  A
C374        H379   1.083       .  S
C375        C376   1.413       .  A
C375        O380   1.372       .  S
C376        C377   1.407       .  A
C377        C378   1.405       .  A
C377        H381   1.083       .  S
C378        O382   1.371       .  S
O380        H384   0.992       .  S
O382        H383   0.992       .  S
C385        C386   1.399       .  A
C385        C390   1.407   1_565  A
C386        C915   1.400       .  A
C386        H391   1.083       .  S
C387        C388   1.409   1_556  A
C387        C914   1.400       .  A
C387        O392   1.371       .  S
C388        C389   1.401       .  A
C389        C918   1.401   1_565  A
C389        H393   1.082       .  S
C390        C917   1.401   1_545  A
C390        O394   1.371       .  S
O392        H396   0.992       .  S
O394        H395   0.991       .  S
C397        C398   1.402       .  A
C397        C402   1.406       .  A
C398        C399   1.408       .  A
C398        H403   1.084       .  S
C399        C400   1.414       .  A
C399        O404   1.371       .  S
C400        C401   1.406       .  A
C401        C402   1.399       .  A
C401        H405   1.083       .  S
C402        O406   1.372       .  S
O404        H408   0.992       .  S
O406        H407   0.993       .  S
C409        C410   1.401       .  A
C409        C414   1.402       .  A
C410        C411   1.401   1_554  A
C410        H415   1.083       .  S
C411        C940   1.406       .  A
C411        O944   1.370       .  S
C412        C939   1.406       .  A
C412        C941   1.406       .  A
C413        C414   1.400       .  A
C413        C940   1.406   1_554  A
C413        H417   1.083   1_565  S
C414        O418   1.371       .  S
O416        C939   1.370       .  S
O416        H420   0.993       .  S
O418        H419   0.991       .  S
C421        C422   1.403       .  A
C421        C426   1.407       .  A
C422        C423   1.402       .  A
C422        H427   1.083       .  S
C423        C424   1.411       .  A
C423        O428   1.371       .  S
C424        C425   1.406       .  A
C425        C426   1.403       .  A
C425        H429   1.084       .  S
C426        O430   1.372       .  S
O428        H432   0.993       .  S
O430        H431   0.993       .  S
C433        C434   1.402       .  A
C433        C438   1.407       .  A
C434        C435   1.405       .  A
C434        H439   1.084       .  S
C435        C436   1.413       .  A
C435        O440   1.371       .  S
C436        C437   1.406       .  A
C437        C438   1.403       .  A
C437        H441   1.084       .  S
C438        O442   1.374       .  S
O440        H444   0.993       .  S
O442        H443   0.992       .  S
C445        C446   1.400       .  A
C445        C450   1.407       .  A
C446        C447   1.395       .  A
C446        H451   1.084       .  S
C447        C448   1.412       .  A
C447        O452   1.372       .  S
C448        C449   1.408       .  A
C449        C450   1.405       .  A
C449        H453   1.083       .  S
C450        O454   1.371       .  S
O452        H456   0.991       .  S
O454        H455   0.992       .  S
C457        C458   1.403       .  A
C457        C462   1.409       .  A
C458        C459   1.402       .  A
C458        H463   1.084       .  S
C459        C460   1.408       .  A
C459        O464   1.373       .  S
C460        C461   1.404       .  A
C461        C462   1.402       .  A
C461        H465   1.082       .  S
C462        O466   1.371       .  S
O464        H468   0.992       .  S
O466        H467   0.992       .  S
C469        C470   1.408       .  A
C469        C474   1.412       .  A
C470        C471   1.404       .  A
C470        H475   1.083       .  S
C471        C472   1.406       .  A
C471        O476   1.371       .  S
C472        C473   1.400       .  A
C473        C474   1.399       .  A
C473        H477   1.083       .  S
C474        O478   1.372       .  S
O476        H480   0.991       .  S
O478        H479   0.992       .  S
C481        C486   1.407       .  A
C481       C1010   1.405   1_554  A
C482        C483   1.400       .  A
C482       C1009   1.405       .  A
C482        H487   1.083       .  S
C483        C484   1.404       .  A
C483        O488   1.371       .  S
C484       C1013   1.400       .  A
C485        C486   1.400       .  A
C485       C1012   1.400   1_554  A
C485        H489   1.083       .  S
C486        O490   1.371       .  S
O488        H492   0.992       .  S
O490        H491   0.992       .  S
C493        C494   1.401       .  A
C493        C498   1.405       .  A
C494        C495   1.403       .  A
C494        H499   1.084       .  S
C495        C496   1.413       .  A
C495        O500   1.371       .  S
C496        C497   1.404       .  A
C497        C498   1.396       .  A
C497        H501   1.084       .  S
C498        O502   1.372       .  S
O500        H504   0.992       .  S
O502        H503   0.993       .  S
C505        C506   1.401       .  A
C505        C510   1.407       .  A
C506        C507   1.400       .  A
C506        H511   1.083       .  S
C507        C508   1.409       .  A
C507        O512   1.371       .  S
C508        N550   1.439   1_554  S
C508        C509   1.400   1_554  A
C509        C510   1.400   1_556  A
C509       H1041   1.080       .  S
C510        O514   1.371       .  S
O512        H516   0.991       .  S
H513       C1037   1.080       .  S
O514        H515   0.991       .  S
C517        C518   1.401       .  A
C517        C522   1.408       .  A
C518        C519   1.399       .  A
C518        H523   1.083       .  S
C519        C520   1.412       .  A
C519        O524   1.368       .  S
C520        C521   1.405       .  A
C521        C522   1.400       .  A
C521        H525   1.084       .  S
C522        O526   1.371       .  S
O524        H528   0.991       .  S
O526        H527   0.992       .  S
N529        C533   1.357       .  A
N529        C530   1.353       .  A
N529       C1033   1.439       .  S
C530        C531   1.381       .  A
C530       C1021   1.474       .  S
C531        C532   1.374       .  A
C531        H534   1.082       .  S
C532        C533   1.385       .  A
C532        H535   1.082       .  S
C533       C1045   1.481       .  S
N536        C540   1.359       .  A
N536        C537   1.357       .  A
N536       C1009   1.439       .  S
C537        C538   1.380       .  A
C537       C1000   1.476       .  S
C538        C539   1.373       .  A
C538        H541   1.082       .  S
C539        C540   1.384       .  A
C539        H542   1.082       .  S
C540       C1048   1.488       .  S
N543        C547   1.356       .  A
N543        C544   1.355       .  A
N543       C1012   1.435       .  S
C544        C545   1.382       .  A
C544        C973   1.478       .  S
C545        C546   1.375       .  A
C545        H548   1.082       .  S
C546        C547   1.382       .  A
C546        H549   1.082       .  S
C547        C985   1.482       .  S
N550        C554   1.356       .  A
N550        C551   1.356       .  A
C551        C552   1.381       .  A
C551        C961   1.478       .  S
C552        C553   1.375       .  A
C552        H555   1.082       .  S
C553        C554   1.384       .  A
C553        H556   1.082       .  S
C554        C988   1.484       .  S
N557        C561   1.356       .  A
N557        C558   1.355       .  A
N557        C937   1.433       .  S
C558        C559   1.382       .  A
C558        C925   1.480       .  S
C559        C560   1.377       .  A
C559        H562   1.082       .  S
C560        C561   1.383       .  A
C560        H563   1.082       .  S
C561        C949   1.483       .  S
N564        C568   1.359       .  A
N564        C565   1.358       .  A
N564        C916   1.438       .  S
C565        C566   1.382       .  A
C565        C901   1.481       .  S
C566        C567   1.375       .  A
C566        H569   1.082       .  S
C567        C568   1.383       .  A
C567        H570   1.082       .  S
C568        C952   1.488       .  S
N571        C575   1.356       .  A
N571        C572   1.352       .  A
N571        C913   1.436   1_545  S
C572        C573   1.380       .  A
C572        C880   1.473       .  S
C573        C574   1.376       .  A
C573        H576   1.082       .  S
C574        C575   1.385       .  A
C574        H577   1.082       .  S
C575        C889   1.482       .  S
N578        C582   1.359       .  A
N578        C579   1.359       .  A
N578        C940   1.439   1_545  S
C579        C580   1.381       .  A
C579        C868   1.479       .  S
C580        C581   1.373       .  A
C580        H583   1.082       .  S
C581        C582   1.383       .  A
C581        H584   1.082       .  S
C582        C892   1.487       .  S
In585       O587   2.258       .  S
In585       O588   2.250       .  S
In585       O596   2.258       .  S
In585       O590   2.234       .  S
In585       O592   2.253       .  S
In585       O593   2.256       .  S
In585       O594   2.247       .  S
In585       O597   2.248       .  S
C586        C664   1.464       .  S
C586        O592   1.260       .  A
C586        O594   1.260       .  A
O587        C595   1.259       .  A
O588        C595   1.259       .  A
C589       C1024   1.481       .  S
C589        O596   1.260       .  A
C589        O590   1.259       .  A
C591        C621   1.466       .  S
C591        O593   1.260       .  A
C591        O597   1.259       .  A
C595        C604   1.467       .  S
In598       O600   2.253       .  S
In598       O601   2.265       .  S
In598       O609   2.275   1_455  S
In598       O603   2.258       .  S
In598       O605   2.274       .  S
In598       O606   2.247   1_455  S
In598       O607   2.249       .  S
In598       O610   2.255   1_455  S
C599        C677   1.472       .  S
C599        O605   1.262       .  A
C599        O607   1.258       .  A
O600        C608   1.258       .  A
O601        C608   1.259       .  A
C602        C856   1.492   1_455  S
C602        O609   1.261   1_455  A
C602        O603   1.259       .  A
C604        O606   1.260       .  A
C604        O610   1.261       .  A
C608        C656   1.469       .  S
In611       O613   2.246       .  S
In611       O614   2.258       .  S
In611       O622   2.278       .  S
In611       O616   2.246       .  S
In611       O618   2.258       .  S
In611       O619   2.260       .  S
In611       O620   2.252       .  S
In611       O623   2.251   1_565  S
C612        C690   1.469       .  S
C612        O618   1.262       .  A
C612        O620   1.260       .  A
O613        C621   1.259       .  A
O614        C621   1.261       .  A
C615        C928   1.490       .  S
C615        O622   1.261       .  A
C615        O616   1.259       .  A
C617        C634   1.468       .  S
C617        O619   1.260   1_545  A
C617        O623   1.259       .  A
In624       O626   2.247   1_455  S
In624       O627   2.259   1_455  S
In624       O635   2.278       .  S
In624       O629   2.250       .  S
In624       O631   2.261       .  S
In624       O632   2.270       .  S
In624       O633   2.252       .  S
In624       O636   2.251       .  S
C625        C703   1.468       .  S
C625        O631   1.261       .  A
C625        O633   1.259       .  A
O626        C634   1.260       .  A
O627        C634   1.262       .  A
C628        C841   1.491       .  S
C628        O635   1.261       .  A
C628        O629   1.258       .  A
C630        C647   1.469       .  S
C630        O632   1.259       .  A
C630        O636   1.257       .  A
In637       O639   2.245       .  S
In637       O640   2.261       .  S
In637       O648   2.271       .  S
In637       O642   2.244       .  S
In637       O644   2.252       .  S
In637       O645   2.272       .  S
In637       O646   2.247       .  S
In637       O649   2.245       .  S
C638        C716   1.463       .  S
C638        O644   1.261       .  A
C638        O646   1.259       .  A
O639        C647   1.259       .  A
O640        C647   1.262       .  A
C641        C997   1.487       .  S
C641        O648   1.261       .  A
C641        O642   1.258       .  A
C643        C660   1.471       .  S
C643        O645   1.261       .  A
C643        O649   1.258       .  A
In650       O652   2.246   1_565  S
In650       O653   2.279       .  S
In650       O661   2.276       .  S
In650       O655   2.245       .  S
In650       O657   2.256       .  S
In650       O658   2.262       .  S
In650       O659   2.244       .  S
In650       O662   2.244       .  S
C651        C729   1.465       .  S
C651        O657   1.261       .  A
C651        O659   1.260       .  A
O652        C660   1.256       .  A
O653        C660   1.261   1_565  A
C654        C904   1.489       .  S
C654        O661   1.261       .  A
C654        O655   1.258       .  A
C656        O658   1.264       .  A
C656        O662   1.260       .  A
In663       O665   2.254       .  S
In663       O666   2.278       .  S
In663       O674   2.270       .  S
In663       O668   2.243       .  S
In663       O670   2.253       .  S
In663       O671   2.265       .  S
In663       O672   2.246       .  S
In663       O675   2.237       .  S
C664        O670   1.261       .  A
C664        O672   1.259       .  A
O665        C673   1.258       .  A
O666        C673   1.261       .  A
C667        C964   1.488       .  S
C667        O674   1.262       .  A
C667        O668   1.259       .  A
C669        C686   1.467       .  S
C669        O671   1.263       .  A
C669        O675   1.259       .  A
C673        C695   1.475       .  S
In676       O678   2.244   1_455  S
In676       O679   2.267       .  S
In676       O687   2.269       .  S
In676       O681   2.252       .  S
In676       O683   2.271       .  S
In676       O684   2.253       .  S
In676       O685   2.249       .  S
In676       O688   2.243       .  S
C677        O683   1.261       .  A
C677        O685   1.259       .  A
O678        C686   1.258       .  A
O679        C686   1.259   1_455  A
C680        C829   1.489       .  S
C680        O687   1.260       .  A
C680        O681   1.259       .  A
C682        C738   1.464       .  S
C682        O684   1.260       .  A
C682        O688   1.260       .  A
In689       O691   2.254   1_565  S
In689       O692   2.260   1_565  S
In689       O700   2.283       .  S
In689       O694   2.239       .  S
In689       O696   2.258       .  S
In689       O697   2.283       .  S
In689       O698   2.260       .  S
In689       O701   2.255       .  S
C690        O696   1.259       .  A
C690        O698   1.260       .  A
O691        C699   1.260       .  A
O692        C699   1.262       .  A
C693        C865   1.490       .  S
C693        O700   1.262       .  A
C693        O694   1.257       .  A
C695        O697   1.260       .  A
C695        O701   1.257       .  A
C699        C708   1.470       .  S
In702       O704   2.241       .  S
In702       O705   2.256       .  S
In702       O713   2.267       .  S
In702       O707   2.249       .  S
In702       O709   2.261       .  S
In702       O710   2.259   1_455  S
In702       O711   2.248       .  S
In702       O714   2.258   1_455  S
C703        O709   1.262       .  A
C703        O711   1.260       .  A
O704        C712   1.260       .  A
O705        C712   1.261       .  A
C706        C820   1.487       .  S
C706        O713   1.260       .  A
C706        O707   1.259       .  A
C708        O710   1.259       .  A
C708        O714   1.259       .  A
C712        C721   1.464       .  S
In715       O717   2.243       .  S
In715       O718   2.254       .  S
In715       O726   2.273       .  S
In715       O720   2.227       .  S
In715       O722   2.245       .  S
In715       O723   2.262       .  S
In715       O724   2.247       .  S
In715       O727   2.242       .  S
C716        O722   1.260       .  A
C716        O724   1.261       .  A
O717        C725   1.258       .  A
O718        C725   1.260       .  A
C719        C976   1.483       .  S
C719        O726   1.261       .  A
C719        O720   1.256       .  A
C721        O723   1.259       .  A
C721        O727   1.257       .  A
C725        C734   1.463       .  S
In728       O730   2.245       .  S
In728       O731   2.255       .  S
In728       O739   2.257       .  S
In728       O733   2.244       .  S
In728       O735   2.256       .  S
In728       O736   2.249   1_565  S
In728       O737   2.244       .  S
In728       O740   2.241   1_565  S
C729        O735   1.261       .  A
C729        O737   1.259       .  A
O730        C738   1.258       .  A
O731        C738   1.259       .  A
C732        C877   1.484       .  S
C732        O739   1.260       .  A
C732        O733   1.259       .  A
C734        O736   1.261       .  A
C734        O740   1.260       .  A
N741        C745   1.358       .  A
N741        C742   1.357       .  A
N741        C793   1.437       .  S
C742        C743   1.380       .  A
C742        C817   1.476       .  S
C743        C744   1.374       .  A
C743        H746   1.082       .  S
C744        C745   1.384       .  A
C744        H747   1.082       .  S
C745        C805   1.488       .  S
N748        C752   1.355       .  A
N748        C749   1.353       .  A
N748        C781   1.433       .  S
C749        C750   1.381       .  A
C749        C832   1.477       .  S
C750        C751   1.377       .  A
C750        H753   1.082       .  S
C751        C752   1.384       .  A
C751        H754   1.082       .  S
C752        C808   1.485       .  S
N755        C759   1.358       .  A
N755        C756   1.356       .  A
N755        C796   1.435       .  S
C756        C757   1.380       .  A
C756        C844   1.481       .  S
C757        C758   1.377       .  A
C757        H760   1.082       .  S
C758        C759   1.384       .  A
C758        H761   1.082       .  S
C759        C769   1.490       .  S
N762        C766   1.359       .  A
N762        C763   1.357       .  A
N762        C784   1.436       .  S
C763        C764   1.381       .  A
C763        C853   1.483       .  S
C764        C765   1.378       .  A
C764        H767   1.082       .  S
C765        C766   1.384       .  A
C765        H768   1.082       .  S
C766        C772   1.492       .  S
C769        C770   1.403       .  A
C769        C774   1.410       .  A
C770        C771   1.403       .  A
C770        H775   1.081       .  S
C771        C772   1.412       .  A
C771        O776   1.370   1_655  S
C772        C773   1.406       .  A
C773        C774   1.402       .  A
C773        H777   1.084       .  S
C774        O778   1.371       .  S
O776        H780   0.990   1_455  S
O778        H779   0.993       .  S
C781        C782   1.398       .  A
C782        H787   1.082       .  S
C783        C784   1.408       .  A
C783        O788   1.371       .  S
C784        C785   1.401   1_655  A
C785        C786   1.398       .  A
C785        H789   1.081       .  S
C786        O790   1.371       .  S
O788        H792   0.992       .  S
O790        H791   0.991       .  S
C794        C795   1.401       .  A
C794        H799   1.083       .  S
C795        C796   1.403   1_455  A
C795        O800   1.371       .  S
C796        C797   1.402       .  A
C797        C798   1.399   1_655  A
C797        H801   1.083       .  S
O800        H804   0.992       .  S
O802        H803   0.992   1_455  S
C805        C806   1.405       .  A
C805        C810   1.412       .  A
C806        C807   1.400       .  A
C807        C808   1.408       .  A
C808        C809   1.404       .  A
C809        C810   1.403       .  A
C809        H813   1.082       .  S
C810        O814   1.370       .  S
O812        H816   0.992       .  S
O814        H815   0.991       .  S
C817        C818   1.401       .  A
C817        C822   1.405       .  A
C818        C819   1.406       .  A
C818        H823   1.083       .  S
C819        C820   1.415       .  A
C819        O824   1.371       .  S
C820        C821   1.405       .  A
C821        C822   1.398       .  A
C821        H825   1.083       .  S
C822        O826   1.372       .  S
O824        H828   0.992       .  S
O826        H827   0.992       .  S
C829        C830   1.406       .  A
C829        C834   1.414       .  A
C830        C831   1.401       .  A
C830        H835   1.083       .  S
C831        C832   1.404       .  A
C831        O836   1.373       .  S
C832        C833   1.401       .  A
C833        C834   1.406       .  A
C833        H837   1.084       .  S
C834        O838   1.371       .  S
O836        H840   0.991       .  S
O838        H839   0.992       .  S
C841        C842   1.408   1_455  A
C841        C846   1.414       .  A
C842        C843   1.406       .  A
C842        H847   1.083       .  S
C843        C844   1.406       .  A
C843        O848   1.371       .  S
C844        C845   1.401       .  A
C845        C846   1.401   1_655  A
C845        H849   1.084   1_655  S
C846        O850   1.371       .  S
O848        H852   0.991       .  S
O850        H851   0.991       .  S
C853        C854   1.402       .  A
C853        C858   1.407       .  A
C854        C855   1.403   1_655  A
C854        H859   1.083   1_655  S
C855        C856   1.413   1_455  A
C855        O860   1.372       .  S
C856        C857   1.408       .  A
C857        C858   1.406       .  A
C857        H861   1.083       .  S
C858        O862   1.371       .  S
O860        H864   0.991       .  S
O862        H863   0.993       .  S
C865        C866   1.406       .  A
C865        C870   1.413       .  A
C866        C867   1.398       .  A
C866        H871   1.083       .  S
C867        C868   1.406   1_565  A
C867        O872   1.373       .  S
C868        C869   1.403       .  A
C869        C870   1.407   1_545  A
C869        H873   1.083       .  S
C870        O874   1.371   1_565  S
O872        H876   0.991       .  S
O874        H875   0.993   1_545  S
C877        C878   1.406       .  A
C877        C882   1.414   1_565  A
C878        C879   1.398       .  A
C878        H883   1.083       .  S
C879        C880   1.405   1_565  A
C879        O884   1.372       .  S
C880        C881   1.399       .  A
C881        C882   1.403       .  A
C881        H885   1.084       .  S
C882        O886   1.371       .  S
O884        H888   0.993   1_565  S
O886        H887   0.992   1_545  S
C889        C890   1.404       .  A
C889        C894   1.407       .  A
C890        C891   1.404       .  A
C890        H895   1.083   1_545  S
C891        C892   1.410       .  A
C891        O896   1.371   1_545  S
C892        C893   1.405       .  A
C893        C894   1.402       .  A
C893        H897   1.084       .  S
C894        O898   1.372       .  S
O896        H900   0.991       .  S
O898        H899   0.993       .  S
C901        C902   1.401       .  A
C901        C906   1.408       .  A
C902        C903   1.403       .  A
C902        H907   1.083       .  S
C903        C904   1.413       .  A
C903        O908   1.372       .  S
C904        C905   1.407       .  A
C905        C906   1.405       .  A
C905        H909   1.083       .  S
C906        O910   1.371       .  S
O908        H912   0.992       .  S
O910        H911   0.992       .  S
C913        C914   1.399       .  A
C913        C918   1.407   1_566  A
C914        H919   1.083       .  S
C915        C916   1.409       .  A
C915        O920   1.371       .  S
C916        C917   1.401       .  A
C917        H921   1.082       .  S
C918        O922   1.371       .  S
O920        H924   0.992       .  S
O922        H923   0.991       .  S
C925        C926   1.402       .  A
C925        C930   1.406       .  A
C926        C927   1.408       .  A
C926        H931   1.084       .  S
C927        C928   1.414       .  A
C927        O932   1.371       .  S
C928        C929   1.406       .  A
C929        C930   1.399       .  A
C929        H933   1.083       .  S
C930        O934   1.372       .  S
O932        H936   0.992       .  S
O934        H935   0.993       .  S
C937        C938   1.401       .  A
C937        C942   1.402       .  A
C938        C939   1.401       .  A
C938        H943   1.083       .  S
C941        C942   1.400       .  A
C941        H945   1.083   1_565  S
C942        O946   1.371       .  S
O944        H948   0.993       .  S
O946        H947   0.991       .  S
C949        C950   1.403       .  A
C949        C954   1.407       .  A
C950        C951   1.402       .  A
C950        H955   1.083       .  S
C951        C952   1.411       .  A
C951        O956   1.371       .  S
C952        C953   1.406       .  A
C953        C954   1.404       .  A
C953        H957   1.084       .  S
C954        O958   1.372       .  S
O956        H960   0.992       .  S
O958        H959   0.993       .  S
C961        C962   1.402       .  A
C961        C966   1.407       .  A
C962        C963   1.405       .  A
C962        H967   1.084       .  S
C963        C964   1.413       .  A
C963        O968   1.371       .  S
C964        C965   1.406       .  A
C965        C966   1.403       .  A
C965        H969   1.083       .  S
C966        O970   1.374       .  S
O968        H972   0.992       .  S
O970        H971   0.992       .  S
C973        C974   1.400       .  A
C973        C978   1.407       .  A
C974        C975   1.395       .  A
C974        H979   1.084       .  S
C975        C976   1.412       .  A
C975        O980   1.372       .  S
C976        C977   1.408       .  A
C977        C978   1.405       .  A
C977        H981   1.083       .  S
C978        O982   1.371       .  S
O980        H984   0.991       .  S
O982        H983   0.992       .  S
C985        C986   1.403       .  A
C985        C990   1.409       .  A
C986        C987   1.402       .  A
C986        H991   1.084       .  S
C987        C988   1.408       .  A
C987        O992   1.373   1_556  S
C988        C989   1.404       .  A
C989        C990   1.402       .  A
C989        H993   1.082       .  S
C990        O994   1.371       .  S
O992        H996   0.992   1_554  S
O994        H995   0.992       .  S
C997        C998   1.408       .  A
C997       C1002   1.412       .  A
C998        C999   1.404       .  A
C998       H1003   1.083       .  S
C999       C1000   1.406       .  A
C999       O1004   1.371       .  S
C1000      C1001   1.400       .  A
C1001      C1002   1.399       .  A
C1001      H1005   1.083       .  S
C1002      O1006   1.372       .  S
O1004      H1008   0.991       .  S
O1006      H1007   0.992       .  S
C1009      C1014   1.407       .  A
C1010      C1011   1.400       .  A
C1010      H1015   1.083       .  S
C1011      C1012   1.404       .  A
C1011      O1016   1.371       .  S
C1013      C1014   1.400       .  A
C1013      H1017   1.083       .  S
C1014      O1018   1.371       .  S
O1016      H1020   0.992       .  S
O1018      H1019   0.992       .  S
C1021      C1022   1.401       .  A
C1021      C1026   1.405       .  A
C1022      C1023   1.403       .  A
C1022      H1027   1.084       .  S
C1023      C1024   1.413       .  A
C1023      O1028   1.371       .  S
C1024      C1025   1.404       .  A
C1025      C1026   1.396       .  A
C1025      H1029   1.084       .  S
C1026      O1030   1.372       .  S
O1028      H1032   0.992       .  S
O1030      H1031   0.993       .  S
C1033      C1034   1.401       .  A
C1033      C1038   1.407       .  A
C1034      C1035   1.400       .  A
C1034      H1039   1.083       .  S
C1035      C1036   1.409       .  A
C1035      O1040   1.371       .  S
C1036      C1037   1.400       .  A
C1037      C1038   1.400       .  A
C1038      O1042   1.371       .  S
O1040      H1044   0.991       .  S
O1042      H1043   0.991       .  S
C1045      C1046   1.401       .  A
C1045      C1050   1.408       .  A
C1046      C1047   1.399       .  A
C1046      H1051   1.083       .  S
C1047      C1048   1.412       .  A
C1047      O1052   1.368       .  S
C1048      C1049   1.405       .  A
C1049      C1050   1.400       .  A
C1049      H1053   1.084       .  S
C1050      O1054   1.371       .  S
O1052      H1056   0.991       .  S
O1054      H1055   0.992       .  S
