geometry optimzed in LAMMPS
_audit_creation_date              2020-11-30 
_audit_creation_method            'lammps2cif' 
_symmetry_space_group_name_H-M    'P1' 
_symmetry_Int_Tables_number       1 
_symmetry_cell_setting            triclinic 
loop_ 
_symmetry_equiv_pos_as_xyz 
  x,y,z 
_cell_length_a                    44.45010604 
_cell_length_b                    44.49068148464275 
_cell_length_c                    44.515409574719875 
_cell_angle_alpha                 90.19347920098825 
_cell_angle_beta                  89.95519533977429 
_cell_angle_gamma                 90.09437533192461 
loop_ 
_atom_site_label 
_atom_site_type_symbol 
_atom_site_fract_x 
_atom_site_fract_y 
_atom_site_fract_z 
_atom_site_charge 
O1          O  0.16301465  0.12379449  0.34643635    -0.72200
O2          O  0.07257516  0.12645878  0.35053199    -0.73100
O3          O  0.11852579  0.17048436  0.34689540    -0.61800
O4          O  0.11639802  0.07984649  0.35024705    -0.70200
O5          O  0.11991074  0.08195243  0.39992222    -0.69700
O6          O  0.11949435  0.17222641  0.39667444    -0.61000
O7          O  0.07482247  0.12704255  0.40036126    -0.73500
O8          O  0.16504132  0.12720539  0.39618235    -0.72300
Cu9        Cu  0.11759674  0.12507544  0.34675927     1.04600
Cu10       Cu  0.11994195  0.12716879  0.39998411     1.04300
C11         C  0.17824134  0.12522235  0.37074796     0.94000
C12         C  0.05950292  0.12702886  0.37610064     0.93200
C13         C  0.11859352  0.18566513  0.37135696     0.85300
C14         C  0.11796346  0.06662166  0.37566730     0.91600
O15         O  0.12180434  0.83039611  0.35693576    -0.72200
O16         O  0.11994466  0.92099611  0.35426077    -0.73100
O17         O  0.16599450  0.87645070  0.35579201    -0.61800
O18         O  0.07591758  0.87488196  0.35463911    -0.70200
O19         O  0.07490866  0.87727657  0.40444544    -0.69700
O20         O  0.16571211  0.87724671  0.40562552    -0.61000
O21         O  0.12021472  0.92231594  0.40410347    -0.73500
O22         O  0.12077207  0.83205856  0.40663861    -0.72300
Cu23       Cu  0.12092667  0.87563402  0.35369435     1.04600
Cu24       Cu  0.12033426  0.87728500  0.40694806     1.04300
C25         C  0.12192738  0.81685504  0.38225712     0.94000
C26         C  0.11979100  0.93590962  0.37888039     0.93200
C27         C  0.18013974  0.87672034  0.38075022     0.85300
C28         C  0.06116654  0.87611443  0.37922049     0.91600
O29         O  0.87069512  0.08046504  0.35144816    -0.72200
O30         O  0.86995425  0.17059586  0.35374388    -0.73100
O31         O  0.91531770  0.12622786  0.35325153    -0.61800
O32         O  0.82508578  0.12543839  0.35212697    -0.70200
O33         O  0.82448792  0.12429784  0.40185396    -0.69700
O34         O  0.91471022  0.12467290  0.40309905    -0.61000
O35         O  0.86966856  0.16972738  0.40358919    -0.73500
O36         O  0.86964970  0.07927068  0.40127395    -0.72300
Cu37       Cu  0.87027839  0.12567406  0.35092329     1.04600
Cu38       Cu  0.86959807  0.12443284  0.40420346     1.04300
C39         C  0.87026146  0.06561303  0.37597569     0.94000
C40         C  0.86981117  0.18439939  0.37894168     0.93200
C41         C  0.92922343  0.12578442  0.37835030     0.85300
C42         C  0.81042283  0.12497043  0.37683398     0.91600
O43         O  0.87103390  0.83036187  0.39857634    -0.72200
O44         O  0.87012616  0.92085530  0.39833628    -0.73100
O45         O  0.82534606  0.87554882  0.39803376    -0.61800
O46         O  0.91570551  0.87613395  0.39941894    -0.70200
O47         O  0.91674755  0.87428736  0.34960609    -0.69700
O48         O  0.82592220  0.87617611  0.34830192    -0.61000
O49         O  0.87217587  0.92048960  0.34853375    -0.73500
O50         O  0.87029300  0.83014688  0.34902268    -0.72300
Cu51       Cu  0.87051840  0.87569374  0.40029568     1.04600
Cu52       Cu  0.87131820  0.87524415  0.34712881     1.04300
C53         C  0.87078133  0.81573376  0.37378784     0.94000
C54         C  0.87103996  0.93494332  0.37336060     0.93200
C55         C  0.81124733  0.87621770  0.37304055     0.85300
C56         C  0.93050162  0.87520712  0.37482806     0.91600
O57         O  0.09613967  0.42248283  0.37306966    -0.72200
O58         O  0.09307520  0.33182120  0.37343864    -0.73100
O59         O  0.09333064  0.37742759  0.41877804    -0.61800
O60         O  0.09637688  0.37658632  0.32830554    -0.70200
O61         O  0.14633073  0.37633374  0.33005558    -0.69700
O62         O  0.14313228  0.37518402  0.41988682    -0.61000
O63         O  0.14292264  0.33036189  0.37399648    -0.73500
O64         O  0.14595060  0.42100281  0.37565229    -0.72300
Cu65       Cu  0.09296919  0.37716153  0.37338288     1.04600
Cu66       Cu  0.14628545  0.37566140  0.37500186     1.04300
C67         C  0.12149834  0.43605321  0.37427902     0.94000
C68         C  0.11753956  0.31675587  0.37325141     0.93200
C69         C  0.11792606  0.37618329  0.43363860     0.85300
C70         C  0.12189312  0.37640212  0.31504350     0.91600
O71         O  0.14338285  0.33024024  0.62381161    -0.72200
O72         O  0.14807726  0.42029323  0.62384236    -0.73100
O73         O  0.14615033  0.37559283  0.66905063    -0.61800
O74         O  0.14474259  0.37531155  0.57853183    -0.70200
O75         O  0.09496730  0.37793056  0.57939449    -0.69700
O76         O  0.09626464  0.37705582  0.66952809    -0.61000
O77         O  0.09822068  0.42269673  0.62533694    -0.73500
O78         O  0.09351473  0.33207312  0.62382617    -0.72300
Cu79       Cu  0.14731145  0.37524739  0.62374133     1.04600
Cu80       Cu  0.09400571  0.37753257  0.62450833     1.04300
C81         C  0.11791480  0.31686567  0.62387585     0.94000
C82         C  0.12391194  0.43570772  0.62500702     0.93200
C83         C  0.12131235  0.37641661  0.68355837     0.85300
C84         C  0.11959689  0.37665701  0.56463847     0.91600
O85         O  0.15252928  0.62377596  0.42444110    -0.72200
O86         O  0.15159813  0.62956286  0.33442800    -0.73100
O87         O  0.15228948  0.67161011  0.38233338    -0.61800
O88         O  0.15120716  0.58106617  0.37646647    -0.70200
O89         O  0.10131276  0.58160865  0.37569657    -0.69700
O90         O  0.10239136  0.67174738  0.38391127    -0.61000
O91         O  0.10178629  0.63083367  0.33443116    -0.73500
O92         O  0.10262401  0.62284432  0.42519939    -0.72300
Cu93       Cu  0.15360371  0.62641348  0.37939281     1.04600
Cu94       Cu  0.10027304  0.62672712  0.37983380     1.04300
C95         C  0.12783614  0.62275248  0.43909680     0.94000
C96         C  0.12677677  0.63146139  0.32010277     0.93200
C97         C  0.12741292  0.68592698  0.38394006     0.85300
C98         C  0.12606597  0.56705011  0.37520730     0.91600
O99         O  0.10340396  0.62417578  0.58412743    -0.72200
O100        O  0.10235705  0.62548981  0.67475882    -0.73100
O101        O  0.10277125  0.67036221  0.62883505    -0.61800
O102        O  0.10329455  0.57996720  0.62998056    -0.70200
O103        O  0.15322760  0.58044156  0.62919768    -0.69700
O104        O  0.15229568  0.67074953  0.63088790    -0.61000
O105        O  0.15211943  0.62510615  0.67526384    -0.73500
O106        O  0.15326086  0.62609551  0.58458731    -0.72300
Cu107      Cu  0.10123775  0.62503715  0.62941354     1.04600
Cu108      Cu  0.15444437  0.62564011  0.63000057     1.04300
C109        C  0.12847484  0.62481576  0.57004635     0.94000
C110        C  0.12707192  0.62513541  0.68943879     0.93200
C111        C  0.12745893  0.68512646  0.62996954     0.85300
C112        C  0.12836688  0.56597816  0.62948683     0.91600
O113        O  0.61861498  0.10030841  0.41933216    -0.72200
O114        O  0.62332053  0.09774704  0.32954265    -0.73100
O115        O  0.66571816  0.10025935  0.37626183    -0.61800
O116        O  0.57513992  0.09764764  0.37196674    -0.70200
O117        O  0.57396964  0.14750611  0.37120041    -0.69700
O118        O  0.66453330  0.15011410  0.37536446    -0.61000
O119        O  0.62146569  0.14735864  0.32816489    -0.73500
O120        O  0.61676991  0.14986335  0.41805698    -0.72300
Cu121      Cu  0.62065918  0.09727083  0.37434589     1.04600
Cu122      Cu  0.61911850  0.15043314  0.37313653     1.04300
C123        C  0.61717879  0.12549965  0.43314130     0.94000
C124        C  0.62356086  0.12212313  0.31450548     0.93200
C125        C  0.67938547  0.12554223  0.37611872     0.85300
C126        C  0.56028585  0.12223100  0.37116697     0.91600
O127        O  0.62606393  0.09902327  0.66889156    -0.72200
O128        O  0.62479310  0.10014655  0.57871550    -0.73100
O129        O  0.67049037  0.09904159  0.62358949    -0.61800
O130        O  0.57995054  0.09941483  0.62442022    -0.70200
O131        O  0.57985675  0.14930922  0.62445558    -0.69700
O132        O  0.67070548  0.14888354  0.62412209    -0.61000
O133        O  0.62434638  0.14973075  0.57957475    -0.73500
O134        O  0.62530915  0.14862833  0.66936456    -0.72300
Cu135      Cu  0.62533365  0.09769076  0.62385100     1.04600
Cu136      Cu  0.62516602  0.15086062  0.62442167     1.04300
C137        C  0.62585381  0.12373836  0.68358026     0.94000
C138        C  0.62371048  0.12517356  0.56469985     0.93200
C139        C  0.68491470  0.12387879  0.62404728     0.85300
C140        C  0.56565439  0.12431614  0.62432455     0.91600
O141        O  0.37021584  0.14688483  0.41789173    -0.72200
O142        O  0.37058923  0.14668242  0.32769919    -0.73100
O143        O  0.32504135  0.14715981  0.37215896    -0.61800
O144        O  0.41555182  0.14623730  0.37305876    -0.70200
O145        O  0.41499955  0.09634781  0.37196214    -0.69700
O146        O  0.32414630  0.09767738  0.37324000    -0.61000
O147        O  0.36933518  0.09693491  0.32747887    -0.73500
O148        O  0.37038806  0.09707422  0.41804567    -0.72300
Cu149      Cu  0.37032643  0.14842048  0.37274641     1.04600
Cu150      Cu  0.36962997  0.09525695  0.37271485     1.04300
C151        C  0.37070666  0.12208803  0.43229176     0.94000
C152        C  0.37020723  0.12183522  0.31323194     0.93200
C153        C  0.30996994  0.12266911  0.37237177     0.85300
C154        C  0.42952795  0.12116616  0.37237774     0.91600
O155        O  0.33055842  0.15060668  0.62294988    -0.72200
O156        O  0.42109370  0.14962625  0.62219023    -0.73100
O157        O  0.37552515  0.14965713  0.57739660    -0.61800
O158        O  0.37607677  0.15034649  0.66784738    -0.70200
O159        O  0.37412715  0.10053420  0.66807847    -0.69700
O160        O  0.37611017  0.09982491  0.57764625    -0.61000
O161        O  0.42050747  0.09975253  0.62397122    -0.73500
O162        O  0.32987132  0.10070463  0.62169517    -0.72300
Cu163      Cu  0.37583847  0.15179387  0.62259365     1.04600
Cu164      Cu  0.37514064  0.09846769  0.62285697     1.04300
C165        C  0.31598783  0.12583579  0.62216800     0.94000
C166        C  0.43503731  0.12455868  0.62317362     0.93200
C167        C  0.37570411  0.12461515  0.56321187     0.85300
C168        C  0.37513183  0.12554701  0.68226878     0.91600
O169        O  0.89832924  0.62582546  0.41905086    -0.72200
O170        O  0.89802852  0.62412650  0.32849070    -0.73100
O171        O  0.89862376  0.67033279  0.37287235    -0.61800
O172        O  0.89844083  0.58034283  0.37495516    -0.70200
O173        O  0.84879499  0.58016267  0.37380980    -0.69700
O174        O  0.84868816  0.67040686  0.37434377    -0.61000
O175        O  0.84808658  0.62550908  0.32909236    -0.73500
O176        O  0.84876004  0.62548110  0.41927523    -0.72300
Cu177      Cu  0.90009100  0.62518339  0.37380794     1.04600
Cu178      Cu  0.84686637  0.62535454  0.37413280     1.04300
C179        C  0.87357540  0.62559819  0.43373034     0.94000
C180        C  0.87286668  0.62490230  0.31460427     0.93200
C181        C  0.87370457  0.68456381  0.37354194     0.85300
C182        C  0.87368111  0.56580081  0.37464183     0.91600
O183        O  0.85218653  0.66848059  0.62499038    -0.72200
O184        O  0.85210114  0.57825733  0.62776295    -0.73100
O185        O  0.85369944  0.62496390  0.67159155    -0.61800
O186        O  0.85096021  0.62238845  0.58131980    -0.70200
O187        O  0.90048274  0.62115316  0.58033010    -0.69700
O188        O  0.90356830  0.62524939  0.67038129    -0.61000
O189        O  0.90202348  0.57781613  0.62762266    -0.73500
O190        O  0.90185767  0.66866161  0.62376866    -0.72300
Cu191      Cu  0.85054447  0.62345110  0.62649930     1.04600
Cu192      Cu  0.90371833  0.62319431  0.62542058     1.04300
C193        C  0.87694124  0.68305932  0.62399583     0.94000
C194        C  0.87690483  0.56378685  0.62828162     0.93200
C195        C  0.87899971  0.62570460  0.68524530     0.85300
C196        C  0.87543181  0.62178408  0.56625100     0.91600
O197        O  0.84820996  0.41986837  0.37359072    -0.72200
O198        O  0.84666852  0.32985640  0.37669857    -0.73100
O199        O  0.84637808  0.37619926  0.42038895    -0.61800
O200        O  0.84868290  0.37307509  0.32975043    -0.70200
O201        O  0.89844334  0.37364263  0.33104744    -0.69700
O202        O  0.89585878  0.37524390  0.42110478    -0.61000
O203        O  0.89647034  0.32912816  0.37681418    -0.73500
O204        O  0.89779718  0.41928863  0.37608856    -0.72300
Cu205      Cu  0.84575262  0.37481444  0.37502094     1.04600
Cu206      Cu  0.89882635  0.37429576  0.37625922     1.04300
C207        C  0.87320782  0.43403286  0.37493305     0.94000
C208        C  0.87131868  0.31516125  0.37722851     0.93200
C209        C  0.87093267  0.37598200  0.43534593     0.85300
C210        C  0.87397187  0.37289231  0.31599961     0.91600
O211        O  0.84610361  0.37441208  0.58276222    -0.72200
O212        O  0.84740722  0.37276549  0.67291494    -0.73100
O213        O  0.84714858  0.41918480  0.62886561    -0.61800
O214        O  0.84668049  0.32838781  0.62686079    -0.70200
O215        O  0.89650235  0.32868420  0.62537986    -0.69700
O216        O  0.89706880  0.41886059  0.62985855    -0.61000
O217        O  0.89728114  0.37186639  0.67238125    -0.73500
O218        O  0.89559470  0.37603002  0.58247779    -0.72300
Cu219      Cu  0.84507091  0.37372862  0.62789893     1.04600
Cu220      Cu  0.89829541  0.37384349  0.62746744     1.04300
C221        C  0.87074774  0.37553409  0.56803888     0.94000
C222        C  0.87248619  0.37183589  0.68689859     0.93200
C223        C  0.87226383  0.43326114  0.62985976     0.85300
C224        C  0.87165990  0.31418848  0.62571391     0.91600
O225        O  0.41599478  0.84653357  0.37899065    -0.72200
O226        O  0.32512723  0.84749419  0.37933182    -0.73100
O227        O  0.37078101  0.84721072  0.33405662    -0.61800
O228        O  0.37082214  0.84635574  0.42433428    -0.70200
O229        O  0.36946969  0.89581745  0.42483461    -0.69700
O230        O  0.37314898  0.89706450  0.33452977    -0.61000
O231        O  0.32606102  0.89726390  0.37843531    -0.73500
O232        O  0.41630888  0.89633168  0.38117163    -0.72300
Cu233      Cu  0.37058777  0.84515315  0.37916351     1.04600
Cu234      Cu  0.37120631  0.89831716  0.37977852     1.04300
C235        C  0.43046548  0.87139939  0.37994345     0.94000
C236        C  0.31122098  0.87265808  0.37891411     0.93200
C237        C  0.37280829  0.87217446  0.32009670     0.85300
C238        C  0.37007195  0.87096195  0.43916427     0.91600
O239        O  0.37512810  0.84527951  0.58627298    -0.72200
O240        O  0.37547261  0.84658804  0.67669772    -0.73100
O241        O  0.33031325  0.84706235  0.63192502    -0.61800
O242        O  0.42059187  0.84408792  0.63124119    -0.70200
O243        O  0.42200219  0.89386609  0.62846397    -0.69700
O244        O  0.33200328  0.89691589  0.63295502    -0.61000
O245        O  0.37936531  0.89602805  0.67572187    -0.73500
O246        O  0.37445966  0.89474604  0.58619197    -0.72300
Cu247      Cu  0.37533617  0.84398014  0.63159936     1.04600
Cu248      Cu  0.37704572  0.89706721  0.63088402     1.04300
C249        C  0.37422278  0.86999124  0.57166896     0.94000
C250        C  0.37765792  0.87164778  0.69066812     0.93200
C251        C  0.31695120  0.87244643  0.63248057     0.85300
C252        C  0.43550483  0.86855728  0.62915459     0.91600
O253        O  0.67069721  0.84801090  0.62074907    -0.72200
O254        O  0.58052678  0.84464848  0.62149380    -0.73100
O255        O  0.62506490  0.84652745  0.57550820    -0.61800
O256        O  0.62550036  0.84635144  0.66617236    -0.70200
O257        O  0.62364766  0.89611923  0.66629346    -0.69700
O258        O  0.62450270  0.89641233  0.57596921    -0.61000
O259        O  0.57897382  0.89454429  0.62089227    -0.73500
O260        O  0.66939645  0.89779765  0.62141432    -0.72300
Cu261      Cu  0.62557355  0.84465078  0.62092244     1.04600
Cu262      Cu  0.62409398  0.89794515  0.62112968     1.04300
C263        C  0.68439298  0.87330358  0.62109790     0.94000
C264        C  0.56557465  0.86911626  0.62159673     0.93200
C265        C  0.62464459  0.87157553  0.56147795     0.85300
C266        C  0.62414631  0.87123758  0.68056853     0.91600
O267        O  0.62087880  0.85119721  0.41611636    -0.72200
O268        O  0.62120374  0.85279714  0.32559800    -0.73100
O269        O  0.66620559  0.85302656  0.37098816    -0.61800
O270        O  0.57597514  0.85089075  0.37101199    -0.70200
O271        O  0.57490647  0.90070110  0.37307706    -0.69700
O272        O  0.66549688  0.90289454  0.37079271    -0.61000
O273        O  0.61921010  0.90258541  0.32643933    -0.73500
O274        O  0.62132024  0.90107526  0.41714922    -0.72300
Cu275      Cu  0.62110809  0.85027544  0.37083221     1.04600
Cu276      Cu  0.62017655  0.90357146  0.37184758     1.04300
C277        C  0.62123196  0.87587710  0.43089825     0.94000
C278        C  0.62015759  0.87787873  0.31168587     0.93200
C279        C  0.68012527  0.87818474  0.37098160     0.85300
C280        C  0.56116243  0.87542236  0.37262340     0.91600
O281        O  0.17142980  0.87689867  0.65242173    -0.72200
O282        O  0.08147266  0.87634674  0.65007393    -0.73100
O283        O  0.12634817  0.83159300  0.65305123    -0.61800
O284        O  0.12651424  0.92213806  0.64909177    -0.70200
O285        O  0.12931089  0.91958465  0.59951812    -0.69700
O286        O  0.12688128  0.82959789  0.60318329    -0.61000
O287        O  0.08249601  0.87586682  0.60055361    -0.73500
O288        O  0.17298183  0.87352607  0.60274424    -0.72300
Cu289      Cu  0.12637681  0.87686245  0.65287703     1.04600
Cu290      Cu  0.12790236  0.87457189  0.59977171     1.04300
C291        C  0.18649144  0.87498913  0.62804885     0.94000
C292        C  0.06744212  0.87608089  0.62506552     0.93200
C293        C  0.12661701  0.81643646  0.62862258     0.85300
C294        C  0.12835710  0.93523429  0.62359811     0.91600
O295        O  0.12227534  0.17051856  0.64703822    -0.72200
O296        O  0.12645746  0.08025242  0.64425460    -0.73100
O297        O  0.16974436  0.12672217  0.64631398    -0.61800
O298        O  0.07941476  0.12371695  0.64512206    -0.70200
O299        O  0.07986117  0.12355776  0.59525131    -0.69700
O300        O  0.17036432  0.12989617  0.59683289    -0.61000
O301        O  0.12871429  0.08160025  0.59465212    -0.73500
O302        O  0.12167716  0.17209029  0.59735237    -0.72300
Cu303      Cu  0.12445748  0.12528355  0.64736275     1.04600
Cu304      Cu  0.12516971  0.12685017  0.59427435     1.04300
C305        C  0.12082880  0.18567078  0.62272076     0.94000
C306        C  0.12879398  0.06654398  0.61907859     0.93200
C307        C  0.18457133  0.12827401  0.62175513     0.85300
C308        C  0.06540431  0.12334117  0.62008992     0.91600
O309        O  0.87450365  0.16865550  0.59935636    -0.72200
O310        O  0.87584032  0.07815753  0.59960050    -0.73100
O311        O  0.83024617  0.12248060  0.60029322    -0.61800
O312        O  0.92018229  0.12393022  0.59810570    -0.70200
O313        O  0.92151165  0.12506724  0.64797428    -0.69700
O314        O  0.83077316  0.12259943  0.65005384    -0.61000
O315        O  0.87751391  0.07855903  0.64943570    -0.73500
O316        O  0.87508165  0.16883824  0.64915789    -0.72300
Cu317      Cu  0.87517423  0.12330485  0.59763839     1.04600
Cu318      Cu  0.87627451  0.12376009  0.65091903     1.04300
C319        C  0.87443030  0.18306092  0.62428360     0.94000
C320        C  0.87685107  0.06411650  0.62458363     0.93200
C321        C  0.81614450  0.12245578  0.62529685     0.85300
C322        C  0.93504009  0.12466504  0.62261480     0.91600
O323        O  0.92004888  0.87246300  0.64879230    -0.72200
O324        O  0.82944841  0.87458462  0.64773777    -0.73100
O325        O  0.87374111  0.82839942  0.64749010    -0.61800
O326        O  0.87595426  0.91884233  0.64951911    -0.70200
O327        O  0.87455036  0.91962264  0.59970498    -0.69700
O328        O  0.87671456  0.82903868  0.59772980    -0.61000
O329        O  0.83031559  0.87344965  0.59793217    -0.73500
O330        O  0.92065518  0.87564448  0.59940810    -0.72300
Cu331      Cu  0.87475436  0.87353820  0.65011825     1.04600
Cu332      Cu  0.87556275  0.87445411  0.59697414     1.04300
C333        C  0.93492458  0.87408833  0.62425183     0.94000
C334        C  0.81556425  0.87408234  0.62258363     0.93200
C335        C  0.87534758  0.81445781  0.62240231     0.85300
C336        C  0.87535716  0.93349779  0.62488437     0.91600
O337        O  0.34922735  0.16548113  0.12254766    -0.72200
O338        O  0.35395714  0.07502738  0.12191636    -0.73100
O339        O  0.35004352  0.12002734  0.16723631    -0.61800
O340        O  0.35274677  0.12060374  0.07705884    -0.70200
O341        O  0.40266247  0.12140680  0.07825193    -0.69700
O342        O  0.39977735  0.12392923  0.16884349    -0.61000
O343        O  0.40375016  0.07771939  0.12497725    -0.73500
O344        O  0.39913931  0.16763918  0.12235613    -0.72300
Cu345      Cu  0.34975412  0.12015422  0.12213880     1.04600
Cu346      Cu  0.40306909  0.12275525  0.12366183     1.04300
C347        C  0.37360688  0.18076346  0.12215146     0.94000
C348        C  0.37960371  0.06218503  0.12377295     0.93200
C349        C  0.37441090  0.12208255  0.18230699     0.85300
C350        C  0.37803520  0.12116191  0.06339833     0.91600
O351        O  0.35561844  0.08067833  0.87441139    -0.72200
O352        O  0.35363590  0.17104090  0.87220527    -0.73100
O353        O  0.35416879  0.12480586  0.82817077    -0.61800
O354        O  0.35481877  0.12685358  0.91861834    -0.70200
O355        O  0.40472362  0.12637801  0.91832393    -0.69700
O356        O  0.40392469  0.12678760  0.82757770    -0.61000
O357        O  0.40318268  0.17211425  0.87334942    -0.73500
O358        O  0.40550272  0.08165893  0.87271782    -0.72300
Cu359      Cu  0.35285925  0.12582202  0.87336345     1.04600
Cu360      Cu  0.40606823  0.12683988  0.87295649     1.04300
C361        C  0.38084489  0.06691558  0.87392475     0.94000
C362        C  0.37811066  0.18615370  0.87254509     0.93200
C363        C  0.37887540  0.12556406  0.81347517     0.85300
C364        C  0.37983460  0.12635646  0.93275412     0.91600
O365        O  0.35783996  0.87715687  0.83583179    -0.72200
O366        O  0.35920901  0.87639555  0.92575990    -0.73100
O367        O  0.35821780  0.92186272  0.88103260    -0.61800
O368        O  0.35919308  0.83149729  0.87987979    -0.70200
O369        O  0.40876623  0.83161749  0.88094094    -0.69700
O370        O  0.40808310  0.92224772  0.87897475    -0.61000
O371        O  0.40907282  0.87807105  0.92530771    -0.73500
O372        O  0.40779801  0.87577346  0.83494953    -0.72300
Cu373      Cu  0.35692129  0.87671661  0.88073034     1.04600
Cu374      Cu  0.41019806  0.87698357  0.88007133     1.04300
C375        C  0.38254773  0.87626721  0.82126428     0.94000
C376        C  0.38424872  0.87719061  0.93980550     0.93200
C377        C  0.38302961  0.93633450  0.87957220     0.85300
C378        C  0.38399558  0.81697782  0.88005527     0.91600
O379        O  0.40811389  0.87098612  0.17567763    -0.72200
O380        O  0.41009741  0.87335903  0.08503851    -0.73100
O381        O  0.40955405  0.91769771  0.13121490    -0.61800
O382        O  0.40841468  0.82687529  0.12900813    -0.70200
O383        O  0.35882913  0.82785544  0.13050045    -0.69700
O384        O  0.35974315  0.91777579  0.12775386    -0.61000
O385        O  0.36022331  0.87158642  0.08417183    -0.73500
O386        O  0.35851928  0.87402227  0.17424899    -0.72300
Cu387      Cu  0.41084737  0.87222838  0.13032660     1.04600
Cu388      Cu  0.35767791  0.87283068  0.12918474     1.04300
C389        C  0.38284177  0.87203968  0.18940533     0.94000
C390        C  0.38539988  0.87268498  0.07034838     0.93200
C391        C  0.38469600  0.93197044  0.12891585     0.85300
C392        C  0.38326965  0.81284684  0.12964925     0.91600
O393        O  0.87954760  0.39086392  0.07990929    -0.72200
O394        O  0.87813398  0.39323519  0.17005941    -0.73100
O395        O  0.92413092  0.39116742  0.12565148    -0.61800
O396        O  0.83375536  0.39262750  0.12424215    -0.70200
O397        O  0.83282017  0.34281897  0.12651561    -0.69700
O398        O  0.92334079  0.34131807  0.12570648    -0.61000
O399        O  0.87848296  0.34337488  0.17138998    -0.73500
O400        O  0.87747668  0.34102292  0.08084498    -0.72300
Cu401      Cu  0.87895391  0.39368200  0.12491612     1.04600
Cu402      Cu  0.87802897  0.34037244  0.12613868     1.04300
C403        C  0.87837722  0.36565236  0.06614546     0.94000
C404        C  0.87808222  0.36875016  0.18497527     0.93200
C405        C  0.93804052  0.36603663  0.12586317     0.85300
C406        C  0.81901247  0.36796552  0.12531467     0.91600
O407        O  0.87450418  0.39266035  0.83197919    -0.72200
O408        O  0.87681250  0.39096072  0.92205971    -0.73100
O409        O  0.92076419  0.39121939  0.87566159    -0.61800
O410        O  0.83052684  0.39275750  0.87800430    -0.70200
O411        O  0.82936107  0.34294707  0.87631222    -0.69700
O412        O  0.92006963  0.34131838  0.87581533    -0.61000
O413        O  0.87483815  0.34110191  0.92107724    -0.73500
O414        O  0.87430474  0.34279358  0.83103832    -0.72300
Cu415      Cu  0.87568489  0.39362515  0.87698866     1.04600
Cu416      Cu  0.87461787  0.34028981  0.87602215     1.04300
C417        C  0.87408600  0.36794627  0.81728428     0.94000
C418        C  0.87607223  0.36576910  0.93577667     0.93200
C419        C  0.93466508  0.36611763  0.87546139     0.85300
C420        C  0.81563637  0.36817497  0.87724875     0.91600
O421        O  0.12659812  0.39531839  0.07941733    -0.72200
O422        O  0.12680935  0.39883433  0.16929163    -0.73100
O423        O  0.17232532  0.39966568  0.12355176    -0.61800
O424        O  0.08179926  0.39440657  0.12492505    -0.70200
O425        O  0.08474478  0.34468427  0.12600094    -0.69700
O426        O  0.17496351  0.34989371  0.12466344    -0.61000
O427        O  0.13017393  0.34931976  0.17063923    -0.73500
O428        O  0.13019791  0.34592457  0.08040705    -0.72300
Cu429      Cu  0.12682399  0.39876807  0.12425905     1.04600
Cu430      Cu  0.13008859  0.34573956  0.12555038     1.04300
C431        C  0.12898013  0.37032770  0.06541152     0.94000
C432        C  0.12790718  0.37451298  0.18438912     0.93200
C433        C  0.18788149  0.37549770  0.12321315     0.85300
C434        C  0.06898326  0.36868875  0.12582939     0.91600
O435        O  0.12406665  0.35006922  0.82795664    -0.72200
O436        O  0.12827685  0.34778134  0.91798947    -0.73100
O437        O  0.08080025  0.34615689  0.87512659    -0.61800
O438        O  0.17094203  0.35142709  0.87129051    -0.70200
O439        O  0.16882930  0.40108807  0.87334100    -0.69700
O440        O  0.07822623  0.39597031  0.87534637    -0.61000
O441        O  0.12443312  0.39711755  0.91959857    -0.73500
O442        O  0.12239293  0.39985084  0.82935333    -0.72300
Cu443      Cu  0.12607986  0.34717222  0.87304077     1.04600
Cu444      Cu  0.12336029  0.40025123  0.87451630     1.04300
C445        C  0.12284690  0.37530796  0.81435654     0.94000
C446        C  0.12708153  0.37206029  0.93331285     0.93200
C447        C  0.06527101  0.37029367  0.87550177     0.85300
C448        C  0.18426348  0.37689289  0.87172283     0.91600
O449        O  0.59329459  0.82867306  0.12149883    -0.72200
O450        O  0.59097984  0.91953298  0.12052853    -0.73100
O451        O  0.59187518  0.87350074  0.07550634    -0.61800
O452        O  0.59247762  0.87480252  0.16638315    -0.70200
O453        O  0.64230634  0.87552185  0.16579233    -0.69700
O454        O  0.64176161  0.87576242  0.07547817    -0.61000
O455        O  0.64089145  0.92040729  0.12106879    -0.73500
O456        O  0.64310425  0.83015549  0.12058904    -0.72300
Cu457      Cu  0.59037045  0.87405183  0.12095145     1.04600
Cu458      Cu  0.64367970  0.87545872  0.12066184     1.04300
C459        C  0.61862369  0.81503749  0.12133297     0.94000
C460        C  0.61573186  0.93423570  0.12108906     0.93200
C461        C  0.61683258  0.87480469  0.06123277     0.85300
C462        C  0.61757577  0.87544928  0.18045488     0.91600
O463        O  0.59693567  0.87486082  0.82588298    -0.72200
O464        O  0.59642948  0.87366620  0.91608830    -0.73100
O465        O  0.59557401  0.91977943  0.87206582    -0.61800
O466        O  0.59871968  0.82943595  0.87029894    -0.70200
O467        O  0.64856767  0.83152105  0.87191058    -0.69700
O468        O  0.64505652  0.92105030  0.87016927    -0.61000
O469        O  0.64622324  0.87728245  0.91667014    -0.73500
O470        O  0.64681099  0.87501869  0.82585426    -0.72300
Cu471      Cu  0.59518457  0.87441708  0.87104520     1.04600
Cu472      Cu  0.64839111  0.87632840  0.87116712     1.04300
C473        C  0.62185448  0.87447201  0.81156346     0.94000
C474        C  0.62111038  0.87536008  0.93063828     0.93200
C475        C  0.62002027  0.93497946  0.87136459     0.85300
C476        C  0.62425156  0.81627086  0.87103103     0.91600
O477        O  0.59644208  0.17252588  0.87207887    -0.72200
O478        O  0.59491869  0.08226512  0.87497067    -0.73100
O479        O  0.59628344  0.12919058  0.91854650    -0.61800
O480        O  0.59529266  0.12577582  0.82825619    -0.70200
O481        O  0.64524299  0.12753056  0.82824709    -0.69700
O482        O  0.64566180  0.12601027  0.91812612    -0.61000
O483        O  0.64436635  0.08182304  0.87193244    -0.73500
O484        O  0.64628718  0.17180933  0.87376181    -0.72300
Cu485      Cu  0.59397402  0.12747061  0.87348165     1.04600
Cu486      Cu  0.64708218  0.12676305  0.87303803     1.04300
C487        C  0.62160714  0.18643806  0.87276147     0.94000
C488        C  0.61949191  0.06748259  0.87341595     0.93200
C489        C  0.62110067  0.12779107  0.93293344     0.85300
C490        C  0.62031159  0.12648553  0.81411215     0.91600
O491        O  0.64694343  0.07783170  0.12338039    -0.72200
O492        O  0.65146929  0.16828583  0.12539805    -0.73100
O493        O  0.65116594  0.12221339  0.16914985    -0.61800
O494        O  0.64765178  0.12385606  0.07937047    -0.70200
O495        O  0.59836183  0.12826477  0.08084592    -0.69700
O496        O  0.60120644  0.12272505  0.17089723    -0.61000
O497        O  0.60174145  0.17038685  0.12871764    -0.73500
O498        O  0.59711762  0.08038708  0.12328750    -0.72300
Cu499      Cu  0.65103030  0.12296114  0.12422680     1.04600
Cu500      Cu  0.59787089  0.12550869  0.12598770     1.04300
C501        C  0.62125679  0.06484339  0.12297343     0.94000
C502        C  0.62724871  0.18360629  0.12772343     0.93200
C503        C  0.62669353  0.12200514  0.18413847     0.85300
C504        C  0.62266969  0.12671650  0.06554837     0.91600
O505        O  0.16928595  0.60924464  0.12834332    -0.72200
O506        O  0.07895316  0.61389410  0.13099689    -0.73100
O507        O  0.12269887  0.61040531  0.08470000    -0.61800
O508        O  0.12539327  0.61271865  0.17498060    -0.70200
O509        O  0.12698562  0.66252126  0.17440457    -0.69700
O510        O  0.12602612  0.66016002  0.08375546    -0.61000
O511        O  0.08115823  0.66366959  0.12930589    -0.73500
O512        O  0.17177805  0.65904085  0.12841075    -0.72300
Cu513      Cu  0.12396073  0.60986835  0.12984074     1.04600
Cu514      Cu  0.12655204  0.66310003  0.12895233     1.04300
C515        C  0.18483289  0.63344159  0.12791603     0.94000
C516        C  0.06576381  0.63938793  0.13020868     0.93200
C517        C  0.12429874  0.63494983  0.06996609     0.85300
C518        C  0.12659558  0.63781857  0.18902184     0.91600
O519        O  0.12934228  0.60220051  0.83538080    -0.72200
O520        O  0.12837513  0.60451270  0.92580320    -0.73100
O521        O  0.08382060  0.60433664  0.87995238    -0.61800
O522        O  0.17453579  0.60262000  0.88064025    -0.70200
O523        O  0.17525704  0.65234658  0.87914805    -0.69700
O524        O  0.08501981  0.65423346  0.87990673    -0.61000
O525        O  0.13027587  0.65434386  0.92467130    -0.73500
O526        O  0.12942923  0.65206698  0.83430539    -0.72300
Cu527      Cu  0.12903708  0.60165709  0.88055951     1.04600
Cu528      Cu  0.13009309  0.65494719  0.87951619     1.04300
C529        C  0.12906758  0.62676774  0.82059208     0.94000
C530        C  0.12892299  0.62982457  0.93948348     0.93200
C531        C  0.07020467  0.62962448  0.87964880     0.85300
C532        C  0.18931064  0.62730457  0.87944607     0.91600
O533        O  0.88012029  0.65936950  0.91951012    -0.72200
O534        O  0.88056672  0.65677350  0.82936419    -0.73100
O535        O  0.83521663  0.65732354  0.87425020    -0.61800
O536        O  0.92566129  0.65855263  0.87467551    -0.70200
O537        O  0.92602194  0.60863716  0.87494255    -0.69700
O538        O  0.83593487  0.60750447  0.87675362    -0.61000
O539        O  0.88036085  0.60696212  0.83084770    -0.73500
O540        O  0.88196483  0.60951423  0.92099757    -0.72300
Cu541      Cu  0.88039002  0.65976809  0.87440540     1.04600
Cu542      Cu  0.88108761  0.60643324  0.87592118     1.04300
C543        C  0.88104971  0.63491883  0.93444471     0.94000
C544        C  0.88035972  0.63139962  0.81583187     0.93200
C545        C  0.82133214  0.63217611  0.87554632     0.85300
C546        C  0.94004572  0.63369270  0.87478202     0.91600
O547        O  0.87862134  0.61166572  0.07792035    -0.72200
O548        O  0.87455084  0.60748976  0.16762893    -0.73100
O549        O  0.83130748  0.60773239  0.12101552    -0.61800
O550        O  0.92183691  0.61193114  0.12494405    -0.70200
O551        O  0.91955854  0.66171903  0.12616715    -0.69700
O552        O  0.82938336  0.65735775  0.12371815    -0.61000
O553        O  0.87357477  0.65692657  0.17025298    -0.73500
O554        O  0.87553033  0.66143293  0.07974719    -0.72300
Cu555      Cu  0.87665270  0.60800633  0.12273953     1.04600
Cu556      Cu  0.87439749  0.66109045  0.12504559     1.04300
C557        C  0.87768067  0.63703970  0.06463507     0.94000
C558        C  0.87369824  0.63142455  0.18347484     0.93200
C559        C  0.81594371  0.63199556  0.12211311     0.85300
C560        C  0.93496382  0.63751649  0.12620864     0.91600
O561        O  0.37665885  0.32667717  0.09542792    -0.72200
O562        O  0.38106059  0.41703092  0.09850092    -0.73100
O563        O  0.42473465  0.36982318  0.09894283    -0.61800
O564        O  0.33392255  0.37410957  0.09481351    -0.70200
O565        O  0.33196024  0.37053585  0.14440084    -0.69700
O566        O  0.42241774  0.37113493  0.14870877    -0.61000
O567        O  0.37615620  0.41561219  0.14780022    -0.73500
O568        O  0.37691690  0.32543238  0.14507172    -0.72300
Cu569      Cu  0.37930117  0.37189625  0.09517290     1.04600
Cu570      Cu  0.37691236  0.37055476  0.14818148     1.04300
C571        C  0.37572139  0.31165314  0.11984397     0.94000
C572        C  0.37797983  0.43080902  0.12357689     0.93200
C573        C  0.43788888  0.37053246  0.12449292     0.85300
C574        C  0.31861966  0.37311985  0.11912626     0.91600
O575        O  0.37491573  0.57749377  0.10097389    -0.72200
O576        O  0.37751876  0.66781688  0.10117986    -0.73100
O577        O  0.42126032  0.62152698  0.10125367    -0.61800
O578        O  0.33056211  0.62423313  0.10070351    -0.70200
O579        O  0.33046302  0.62532181  0.15041700    -0.69700
O580        O  0.42092223  0.61981357  0.15104718    -0.61000
O581        O  0.37885497  0.66749824  0.15106420    -0.73500
O582        O  0.37280415  0.57754979  0.15042690    -0.72300
Cu583      Cu  0.37602878  0.62270534  0.09928263     1.04600
Cu584      Cu  0.37570753  0.62250594  0.15243916     1.04300
C585        C  0.37350093  0.56297271  0.12567427     0.94000
C586        C  0.37908669  0.68180132  0.12624467     0.93200
C587        C  0.43538542  0.62041558  0.12622710     0.85300
C588        C  0.31610442  0.62568039  0.12552983     0.91600
O589        O  0.62397873  0.66920905  0.10048666    -0.72200
O590        O  0.62592201  0.57875494  0.10104061    -0.73100
O591        O  0.57986826  0.62297044  0.10224195    -0.61800
O592        O  0.67000955  0.62502833  0.09929323    -0.70200
O593        O  0.67133702  0.62645348  0.14911215    -0.69700
O594        O  0.58094861  0.62252807  0.15208119    -0.61000
O595        O  0.62807641  0.57912000  0.15080555    -0.73500
O596        O  0.62428876  0.66986500  0.15030459    -0.72300
Cu597      Cu  0.62488198  0.62394816  0.09907544     1.04600
Cu598      Cu  0.62623198  0.62448721  0.15234421     1.04300
C599        C  0.62371056  0.68385757  0.12524393     0.94000
C600        C  0.62739943  0.56461587  0.12594650     0.93200
C601        C  0.56615418  0.62244394  0.12747243     0.85300
C602        C  0.68491438  0.62632603  0.12377985     0.91600
O603        O  0.58320336  0.37492184  0.15314776    -0.72200
O604        O  0.67402797  0.37415664  0.15201960    -0.73100
O605        O  0.62924195  0.41982298  0.15187940    -0.61800
O606        O  0.62848085  0.32941702  0.15358123    -0.70200
O607        O  0.62800373  0.32825769  0.10381349    -0.69700
O608        O  0.62843424  0.41862785  0.10208372    -0.61000
O609        O  0.67337431  0.37297686  0.10226338    -0.73500
O610        O  0.58291276  0.37314319  0.10330020    -0.72300
Cu611      Cu  0.62873183  0.37466179  0.15439849     1.04600
Cu612      Cu  0.62814458  0.37328991  0.10115555     1.04300
C613        C  0.56879573  0.37373396  0.12830429     0.94000
C614        C  0.68805566  0.37312291  0.12693766     0.93200
C615        C  0.62901581  0.43353709  0.12670021     0.85300
C616        C  0.62838155  0.31451534  0.12897770     0.91600
O617        O  0.42611404  0.62548176  0.89639497    -0.72200
O618        O  0.33554045  0.62599947  0.89798229    -0.73100
O619        O  0.38014290  0.58066615  0.89622817    -0.61800
O620        O  0.38141242  0.67088065  0.89809708    -0.70200
O621        O  0.38225414  0.67194790  0.84822418    -0.69700
O622        O  0.37772767  0.58149130  0.84643580    -0.61000
O623        O  0.33456034  0.62842824  0.84823922    -0.73500
O624        O  0.42540936  0.62473875  0.84654924    -0.72300
Cu625      Cu  0.38084740  0.62573582  0.89887868     1.04600
Cu626      Cu  0.37996807  0.62669656  0.84559543     1.04300
C627        C  0.44005823  0.62501290  0.87127523     0.94000
C628        C  0.32071157  0.62716335  0.87341771     0.93200
C629        C  0.37830862  0.56685003  0.87108384     0.85300
C630        C  0.38235419  0.68560969  0.87352784     0.91600
O631        O  0.62987705  0.67149998  0.84634538    -0.72200
O632        O  0.63292127  0.58198293  0.84809470    -0.73100
O633        O  0.58584723  0.62498569  0.84612323    -0.61800
O634        O  0.67650703  0.62814302  0.84849562    -0.70200
O635        O  0.67514814  0.62837099  0.89817792    -0.69700
O636        O  0.58473446  0.62716473  0.89591743    -0.61000
O637        O  0.63004478  0.58248896  0.89749216    -0.73500
O638        O  0.62941259  0.67249493  0.89619189    -0.72300
Cu639      Cu  0.63134420  0.62661085  0.84554814     1.04600
Cu640      Cu  0.62983631  0.62762802  0.89867682     1.04300
C641        C  0.62932233  0.68618895  0.87102195     0.94000
C642        C  0.63148910  0.56772558  0.87285864     0.93200
C643        C  0.57100672  0.62586620  0.87074409     0.85300
C644        C  0.69023596  0.62875860  0.87372121     0.91600
O645        O  0.62479790  0.42120204  0.89724256    -0.72200
O646        O  0.62297914  0.33127563  0.89669355    -0.73100
O647        O  0.66924570  0.37517375  0.89925992    -0.61800
O648        O  0.57892856  0.37704548  0.89477682    -0.70200
O649        O  0.58107235  0.37757336  0.84505076    -0.69700
O650        O  0.67148970  0.37460400  0.84953270    -0.61000
O651        O  0.62489766  0.33122038  0.84690808    -0.73500
O652        O  0.62829758  0.42113179  0.84786757    -0.72300
Cu653      Cu  0.62389698  0.37622342  0.89870059     1.04600
Cu654      Cu  0.62649065  0.37620564  0.84560853     1.04300
C655        C  0.62708762  0.43567209  0.87262830     0.94000
C656        C  0.62366265  0.31699867  0.87175703     0.93200
C657        C  0.68468304  0.37418468  0.87503200     0.85300
C658        C  0.56566101  0.37728134  0.86931922     0.91600
O659        O  0.32971463  0.37621032  0.84405833    -0.72200
O660        O  0.42004297  0.37713865  0.84397041    -0.73100
O661        O  0.37559682  0.33134624  0.84470340    -0.61800
O662        O  0.37433267  0.42199399  0.84364582    -0.70200
O663        O  0.37538822  0.42233308  0.89350556    -0.69700
O664        O  0.37453229  0.33219518  0.89459095    -0.61000
O665        O  0.42019056  0.37707015  0.89376247    -0.73500
O666        O  0.32967796  0.37779254  0.89388052    -0.72300
Cu667      Cu  0.37488950  0.37663069  0.84234432     1.04600
Cu668      Cu  0.37492041  0.37735446  0.89565711     1.04300
C669        C  0.31541413  0.37720693  0.86895141     0.94000
C670        C  0.43445304  0.37711851  0.86879846     0.93200
C671        C  0.37529308  0.31758066  0.86986666     0.85300
C672        C  0.37498294  0.43639530  0.86854828     0.91600
C673        C  0.53208244  0.37668708  0.86825197    -0.04500
C674        C  0.51600855  0.39520358  0.84808760    -0.01700
C675        C  0.48420111  0.39531912  0.84822251     0.03300
C676        C  0.46803108  0.37697686  0.86858034    -0.04500
C677        C  0.48411764  0.35809843  0.88838589    -0.01700
C678        C  0.51587104  0.35763579  0.88790079     0.03300
C679        C  0.53202154  0.41481787  0.82758056     0.38000
C680        C  0.46808594  0.33822800  0.90868532     0.38000
C681        C  0.53180117  0.33627583  0.90664394     0.36400
C682        C  0.46819822  0.41524041  0.82802042     0.36400
N683        N  0.54453038  0.31911126  0.92138996    -0.38400
N684        N  0.45542875  0.43107609  0.81188563    -0.38400
N685        N  0.45535185  0.32238330  0.92489654    -0.37900
N686        N  0.54452556  0.43047095  0.81102373    -0.37900
C687        C  0.63100729  0.53389740  0.87278574    -0.04500
C688        C  0.63724972  0.51740495  0.89931319    -0.01700
C689        C  0.63599083  0.48565723  0.89929653     0.03300
C690        C  0.62842647  0.46948828  0.87274357    -0.04500
C691        C  0.62231500  0.48600357  0.84619625    -0.01700
C692        C  0.62378866  0.51769262  0.84614646     0.03300
C693        C  0.64554921  0.53269362  0.92701465     0.38000
C694        C  0.61377432  0.47083880  0.81849593     0.38000
C695        C  0.61725451  0.53320514  0.81820228     0.36400
C696        C  0.64292077  0.47002813  0.92704784     0.36400
N697        N  0.61210874  0.54529572  0.79579999    -0.38400
N698        N  0.64824990  0.45794810  0.94940768    -0.38400
N699        N  0.60712168  0.45915683  0.79619496    -0.37900
N700        N  0.65201120  0.54454049  0.94928808    -0.37900
C701        C  0.37713966  0.53347321  0.87053518    -0.04500
C702        C  0.39934031  0.51665413  0.88569390    -0.01700
C703        C  0.39880663  0.48497340  0.88459796     0.03300
C704        C  0.37578912  0.46976893  0.86875428    -0.04500
C705        C  0.35327734  0.48653536  0.85397808    -0.01700
C706        C  0.35390000  0.51829249  0.85493639     0.03300
C707        C  0.42313655  0.53194795  0.90204086     0.38000
C708        C  0.32880454  0.47111287  0.83879930     0.38000
C709        C  0.32971006  0.53531154  0.84126145     0.36400
C710        C  0.42263155  0.46800474  0.89896601     0.36400
N711        N  0.31029664  0.54890052  0.83059775    -0.38400
N712        N  0.44166016  0.45442874  0.91030426    -0.38400
N713        N  0.30925834  0.45877922  0.82677193    -0.37900
N714        N  0.44197981  0.54421356  0.91519727    -0.37900
C715        C  0.47357611  0.62520540  0.87090157    -0.04500
C716        C  0.48963914  0.64814451  0.88607302    -0.01700
C717        C  0.52140757  0.64870927  0.88533220     0.03300
C718        C  0.53751298  0.62577167  0.87032094    -0.04500
C719        C  0.52149531  0.60246681  0.85572740    -0.01700
C720        C  0.48967398  0.60242612  0.85562505     0.03300
C721        C  0.47351100  0.67156481  0.90210072     0.38000
C722        C  0.53768243  0.57756282  0.84227334     0.38000
C723        C  0.47351006  0.57812999  0.84093638     0.36400
C724        C  0.53754694  0.67344295  0.89934566     0.36400
N725        N  0.46063651  0.55871153  0.82926533    -0.38400
N726        N  0.55049794  0.69318582  0.91037089    -0.38400
N727        N  0.55039787  0.55741391  0.83181638    -0.37900
N728        N  0.46071722  0.69022047  0.91499321    -0.37900
C729        C  0.62815114  0.53105694  0.12591421    -0.04500
C730        C  0.64932646  0.51542760  0.14368598    -0.01700
C731        C  0.64959583  0.48363578  0.14402567     0.03300
C732        C  0.62911658  0.46707545  0.12608647    -0.04500
C733        C  0.60848042  0.48271351  0.10773159    -0.01700
C734        C  0.60776102  0.51446502  0.10791376     0.03300
C735        C  0.67181190  0.53202187  0.16061183     0.38000
C736        C  0.58723898  0.46614055  0.08924719     0.38000
C737        C  0.58514221  0.52998100  0.09034164     0.36400
C738        C  0.67179577  0.46801234  0.16204343     0.36400
N739        N  0.56704023  0.54231370  0.07638071    -0.38400
N740        N  0.68950875  0.45557575  0.17640982    -0.38400
N741        N  0.57042439  0.45284398  0.07444124    -0.37900
N742        N  0.68986072  0.54527806  0.17393158    -0.37900
C743        C  0.46888162  0.62060112  0.12644521    -0.04500
C744        C  0.48486320  0.64258819  0.10996796    -0.01700
C745        C  0.51657959  0.64346721  0.11086566     0.03300
C746        C  0.53271856  0.62215953  0.12791262    -0.04500
C747        C  0.51681205  0.60029132  0.14455715    -0.01700
C748        C  0.48504001  0.59938125  0.14364376     0.03300
C749        C  0.46872291  0.66498610  0.09269599     0.38000
C750        C  0.53311652  0.57809223  0.16192694     0.38000
C751        C  0.46910879  0.57559129  0.15919937     0.36400
C752        C  0.53261145  0.66717223  0.09519070     0.36400
N753        N  0.45657516  0.55638805  0.17144692    -0.38400
N754        N  0.54550221  0.68609754  0.08285766    -0.38400
N755        N  0.54607798  0.56041756  0.17584587    -0.37900
N756        N  0.45591958  0.68289141  0.07892981    -0.37900
C757        C  0.47142258  0.37107292  0.12607793    -0.04500
C758        C  0.48660307  0.39649579  0.13782813    -0.01700
C759        C  0.51840972  0.39722951  0.13898765     0.03300
C760        C  0.53534301  0.37261433  0.12828885    -0.04500
C761        C  0.52024042  0.34707573  0.11683725    -0.01700
C762        C  0.48845004  0.34631802  0.11572635     0.03300
C763        C  0.46959812  0.42251277  0.14759129     0.38000
C764        C  0.53747090  0.32116287  0.10697462     0.38000
C765        C  0.47332271  0.31960334  0.10474635     0.36400
C766        C  0.53379997  0.42377832  0.15019144     0.36400
N767        N  0.46160716  0.29801374  0.09612407    -0.38400
N768        N  0.54617119  0.44493657  0.15903525    -0.38400
N769        N  0.55125273  0.30048365  0.09924223    -0.37900
N770        N  0.45632502  0.44353012  0.15523634    -0.37900
C771        C  0.37594350  0.46458824  0.12451867    -0.04500
C772        C  0.38301389  0.48086162  0.15108080    -0.01700
C773        C  0.38132071  0.51260027  0.15175880     0.03300
C774        C  0.37321355  0.52904345  0.12563470    -0.04500
C775        C  0.36520463  0.51264630  0.09936997    -0.01700
C776        C  0.36597838  0.48086931  0.09903814     0.03300
C777        C  0.39241899  0.46529347  0.17813382     0.38000
C778        C  0.35545805  0.52807349  0.07237238     0.38000
C779        C  0.35497623  0.46514891  0.07255336     0.36400
C780        C  0.38834439  0.52791186  0.17977730     0.36400
N781        N  0.34599522  0.45283296  0.05143104    -0.38400
N782        N  0.39375163  0.53978717  0.20231998    -0.38400
N783        N  0.34792034  0.54005687  0.05060999    -0.37900
N784        N  0.39986050  0.45311841  0.19982740    -0.37900
C785        C  0.78226483  0.63080168  0.12195975    -0.04500
C786        C  0.76675379  0.60874497  0.10483912    -0.01700
C787        C  0.73499123  0.60726814  0.10544667     0.03300
C788        C  0.71830126  0.62798924  0.12282679    -0.04500
C789        C  0.73357957  0.65043328  0.13932198    -0.01700
C790        C  0.76530557  0.65169197  0.13916534     0.03300
C791        C  0.78324322  0.58789604  0.08587640     0.38000
C792        C  0.71658344  0.67297252  0.15579774     0.38000
C793        C  0.78024109  0.67418818  0.15754267     0.36400
C794        C  0.71949548  0.58383566  0.08872897     0.36400
N795        N  0.79191219  0.69227023  0.17221734    -0.38400
N796        N  0.70707063  0.56517261  0.07544727    -0.38400
N797        N  0.70302183  0.69099938  0.16880184    -0.37900
N798        N  0.79629228  0.57121950  0.07071847    -0.37900
C799        C  0.78791656  0.63158238  0.87538103    -0.04500
C800        C  0.77187274  0.64672265  0.85267482    -0.01700
C801        C  0.74010837  0.64626858  0.85242195     0.03300
C802        C  0.72391721  0.62998850  0.87455058    -0.04500
C803        C  0.74020782  0.61479999  0.89731574    -0.01700
C804        C  0.77198084  0.61572118  0.89774430     0.03300
C805        C  0.78812693  0.66192105  0.82881201     0.38000
C806        C  0.72455461  0.59752043  0.92009045     0.38000
C807        C  0.78830038  0.60079617  0.92167592     0.36400
C808        C  0.72428904  0.66345145  0.82973811     0.36400
N809        N  0.80133713  0.58894697  0.94075379    -0.38400
N810        N  0.71177989  0.67722890  0.81163285    -0.38400
N811        N  0.71224134  0.58377254  0.93839553    -0.37900
N812        N  0.80117818  0.67385916  0.80975389    -0.37900
C813        C  0.88064921  0.63610455  0.96773750    -0.04500
C814        C  0.85687645  0.65082328  0.98286052    -0.01700
C815        C  0.85632092  0.65195898  0.01455214     0.03300
C816        C  0.87924887  0.63787253  0.03133863    -0.04500
C817        C  0.90321335  0.62345960  0.01618746    -0.01700
C818        C  0.90393614  0.62260955  0.98449876     0.03300
C819        C  0.83221323  0.66358444  0.96579347     0.38000
C820        C  0.92769200  0.61034757  0.03325576     0.38000
C821        C  0.92910272  0.60856252  0.96915725     0.36400
C822        C  0.83158204  0.66676692  0.02984848     0.36400
N823        N  0.94923951  0.59743534  0.95696478    -0.38400
N824        N  0.81187168  0.67866165  0.04200878    -0.38400
N825        N  0.94719897  0.60003128  0.04697737    -0.37900
N826        N  0.81252410  0.67354510  0.95206805    -0.37900
C827        C  0.22301668  0.62702998  0.87778474    -0.04500
C828        C  0.23847329  0.64798527  0.85938067    -0.01700
C829        C  0.27025382  0.64796662  0.85785474     0.03300
C830        C  0.28711554  0.62675999  0.87430787    -0.04500
C831        C  0.27175077  0.60521843  0.89192569    -0.01700
C832        C  0.23999949  0.60568295  0.89412216     0.03300
C833        C  0.22177887  0.66926200  0.84123708     0.38000
C834        C  0.28854817  0.58159692  0.90679586     0.38000
C835        C  0.22504314  0.58471876  0.91411009     0.36400
C836        C  0.28558435  0.67029273  0.83969876     0.36400
N837        N  0.21319275  0.56806247  0.93017638    -0.38400
N838        N  0.29776504  0.68812484  0.82521906    -0.38400
N839        N  0.30194316  0.56258895  0.91835846    -0.37900
N840        N  0.20845665  0.68623685  0.82679603    -0.37900
C841        C  0.97336906  0.63367506  0.87529292    -0.04500
C842        C  0.98964960  0.61712855  0.85357408    -0.01700
C843        C  0.02128949  0.61539572  0.85528579     0.03300
C844        C  0.03688312  0.63057878  0.87847987    -0.04500
C845        C  0.02060301  0.64744151  0.89997015    -0.01700
C846        C  0.98894857  0.64898662  0.89837659     0.03300
C847        C  0.97390768  0.60277811  0.82880392     0.38000
C848        C  0.03631004  0.66216673  0.92452339     0.38000
C849        C  0.97231616  0.66540524  0.92119099     0.36400
C850        C  0.03784315  0.59861845  0.83267443     0.36400
N851        N  0.95893698  0.67841730  0.93935206    -0.38400
N852        N  0.05107588  0.58521206  0.81469203    -0.38400
N853        N  0.04880398  0.67380616  0.94418530    -0.37900
N854        N  0.96134383  0.59150765  0.80896991    -0.37900
C855        C  0.21835700  0.63179542  0.12690616    -0.04500
C856        C  0.23588706  0.64859192  0.14743988    -0.01700
C857        C  0.26764477  0.64689300  0.14671877     0.03300
C858        C  0.28242217  0.62804668  0.12561543    -0.04500
C859        C  0.26475055  0.61155012  0.10476564    -0.01700
C860        C  0.23297557  0.61349899  0.10537719     0.03300
C861        C  0.22120152  0.66714942  0.16995337     0.38000
C862        C  0.27901355  0.59194333  0.08292658     0.38000
C863        C  0.21533566  0.59733641  0.08311322     0.36400
C864        C  0.28502031  0.66546063  0.16722597     0.36400
N865        N  0.20128070  0.58454989  0.06529208    -0.38400
N866        N  0.29883261  0.68033191  0.18356055    -0.38400
N867        N  0.29015465  0.57631179  0.06533981    -0.37900
N868        N  0.20940520  0.68191057  0.18787229    -0.37900
C869        C  0.96838460  0.63912747  0.12794732    -0.04500
C870        C  0.98479274  0.65786765  0.10820439    -0.01700
C871        C  0.01659441  0.65825970  0.10906497     0.03300
C872        C  0.03226180  0.64050856  0.13022015    -0.04500
C873        C  0.01575569  0.62290745  0.15085953    -0.01700
C874        C  0.98405169  0.62196537  0.14951503     0.03300
C875        C  0.96902452  0.67609484  0.08630486     0.38000
C876        C  0.03135239  0.60652490  0.17429860     0.38000
C877        C  0.96757858  0.60408236  0.17118142     0.36400
C878        C  0.03313261  0.67590117  0.08720700     0.36400
N879        N  0.95469770  0.58978364  0.18863736    -0.38400
N880        N  0.04628352  0.68989579  0.06967512    -0.38400
N881        N  0.04379870  0.59361948  0.19307372    -0.37900
N882        N  0.95640086  0.69073048  0.06897071    -0.37900
C883        C  0.12493888  0.63408045  0.03654161    -0.04500
C884        C  0.14793000  0.64932510  0.02073183    -0.01700
C885        C  0.14943918  0.64756163  0.98909839     0.03300
C886        C  0.12773496  0.63090741  0.97287530    -0.04500
C887        C  0.10443964  0.61603257  0.98861513    -0.01700
C888        C  0.10310631  0.61752199  0.02031947     0.03300
C889        C  0.17064325  0.66620904  0.03706042     0.38000
C890        C  0.08106925  0.60023242  0.97212593     0.38000
C891        C  0.07848048  0.60307144  0.03614009     0.36400
C892        C  0.17405195  0.66204687  0.97330482     0.36400
N893        N  0.05876863  0.59165571  0.04873870    -0.38400
N894        N  0.19372946  0.67349295  0.96068997    -0.38400
N895        N  0.06237461  0.58777015  0.95893543    -0.37900
N896        N  0.18864439  0.67974521  0.05015351    -0.37900
C897        C  0.62856999  0.21705182  0.12898404    -0.04500
C898        C  0.61137012  0.23308301  0.15044872    -0.01700
C899        C  0.61125256  0.26484181  0.15050599     0.03300
C900        C  0.62887975  0.28098112  0.12950395    -0.04500
C901        C  0.64692391  0.26487584  0.10876530    -0.01700
C902        C  0.64644875  0.23315677  0.10825875     0.03300
C903        C  0.59431208  0.21693826  0.17308352     0.38000
C904        C  0.66675883  0.28082981  0.08834421     0.38000
C905        C  0.66362081  0.21721416  0.08553483     0.36400
C906        C  0.59215834  0.28078079  0.17167147     0.36400
N907        N  0.67730130  0.20466726  0.06728965    -0.38400
N908        N  0.57692330  0.29349783  0.18853191    -0.38400
N909        N  0.68265187  0.29350713  0.07211575    -0.37900
N910        N  0.58081320  0.20409741  0.19122438    -0.37900
C911        C  0.62325774  0.28360816  0.87175795    -0.04500
C912        C  0.60455028  0.26761105  0.85156931    -0.01700
C913        C  0.60387714  0.23590734  0.85200894     0.03300
C914        C  0.62219450  0.21985365  0.87237363    -0.04500
C915        C  0.64118471  0.23587535  0.89228609    -0.01700
C916        C  0.64163126  0.26756254  0.89205394     0.03300
C917        C  0.58542130  0.28369914  0.83067410     0.38000
C918        C  0.65983781  0.21988422  0.91366458     0.38000
C919        C  0.66172545  0.28358652  0.91226405     0.36400
C920        C  0.58484238  0.21986537  0.83083773     0.36400
N921        N  0.67768278  0.29639452  0.92838769    -0.38400
N922        N  0.56967146  0.20709473  0.81394677    -0.38400
N923        N  0.67481899  0.20726976  0.93071160    -0.37900
N924        N  0.57026045  0.29651110  0.81392668    -0.37900
C925        C  0.62139698  0.12817634  0.96692703    -0.04500
C926        C  0.59445304  0.12384780  0.98366073    -0.01700
C927        C  0.59474414  0.12395961  0.01545762     0.03300
C928        C  0.62203916  0.12799309  0.03160751    -0.04500
C929        C  0.64891222  0.13280424  0.01488852    -0.01700
C930        C  0.64860752  0.13282378  0.98310320     0.03300
C931        C  0.56595597  0.11845774  0.96857453     0.38000
C932        C  0.67742262  0.13820419  0.02997505     0.38000
C933        C  0.67690751  0.13783887  0.96748260     0.36400
C934        C  0.56641205  0.11941750  0.03114191     0.36400
N935        N  0.69966511  0.14168141  0.95542385    -0.38400
N936        N  0.54365852  0.11591430  0.04330865    -0.38400
N937        N  0.70030546  0.14238081  0.04169219    -0.37900
N938        N  0.54312785  0.11416763  0.95679532    -0.37900
C939        C  0.62578362  0.78298662  0.87077037    -0.04500
C940        C  0.64561034  0.76782369  0.89038528    -0.01700
C941        C  0.64756342  0.73623833  0.88961889     0.03300
C942        C  0.62847846  0.71945409  0.87050525    -0.04500
C943        C  0.60837799  0.73456602  0.85117288    -0.01700
C944        C  0.60766913  0.76621657  0.85069282     0.03300
C945        C  0.66328473  0.78453900  0.91220458     0.38000
C946        C  0.58754501  0.71762617  0.83254232     0.38000
C947        C  0.58904379  0.78145655  0.82873676     0.36400
C948        C  0.66997331  0.72110191  0.90782314     0.36400
N949        N  0.57439835  0.79362943  0.81108084    -0.38400
N950        N  0.68797199  0.70898972  0.92211614    -0.38400
N951        N  0.57078917  0.70410758  0.81787227    -0.37900
N952        N  0.67723202  0.79780664  0.92975460    -0.37900
C953        C  0.61961250  0.96892681  0.87212782    -0.04500
C954        C  0.64613837  0.98545534  0.87920710    -0.01700
C955        C  0.64593450  0.01720833  0.87992126     0.03300
C956        C  0.61933796  0.03354662  0.87325915    -0.04500
C957        C  0.59279825  0.01707553  0.86623523    -0.01700
C958        C  0.59289916  0.98524748  0.86585951     0.03300
C959        C  0.67412120  0.97023105  0.88642046     0.38000
C960        C  0.56509293  0.03250164  0.85851667     0.38000
C961        C  0.56509533  0.96967042  0.85845929     0.36400
C962        C  0.67358273  0.03269340  0.88817811     0.36400
N963        N  0.54277667  0.95752245  0.85271581    -0.38400
N964        N  0.69574505  0.04476810  0.89463762    -0.38400
N965        N  0.54289212  0.04452177  0.85224414    -0.37900
N966        N  0.69658116  0.95841007  0.89213710    -0.37900
C967        C  0.61975499  0.78139375  0.12226989    -0.04500
C968        C  0.60043967  0.76505189  0.14162680    -0.01700
C969        C  0.60156318  0.73327468  0.14244242     0.03300
C970        C  0.62268912  0.71741402  0.12471764    -0.04500
C971        C  0.64255871  0.73373139  0.10602939    -0.01700
C972        C  0.64067080  0.76540471  0.10430005     0.03300
C973        C  0.58003662  0.78086610  0.16161476     0.38000
C974        C  0.66585894  0.71802339  0.08938995     0.38000
C975        C  0.65971162  0.78136938  0.08317583     0.36400
C976        C  0.58030423  0.71686267  0.16096377     0.36400
N977        N  0.67477925  0.79409096  0.06621778    -0.38400
N978        N  0.56329715  0.70371000  0.17561488    -0.38400
N979        N  0.68460205  0.70549254  0.07636608    -0.37900
N980        N  0.56386656  0.79343962  0.17769356    -0.37900
C981        C  0.61568755  0.96766906  0.12226429    -0.04500
C982        C  0.63330258  0.98275010  0.14404758    -0.01700
C983        C  0.63585710  0.01436171  0.14366691     0.03300
C984        C  0.61938775  0.03141437  0.12258678    -0.04500
C985        C  0.60075125  0.01639403  0.10156004    -0.01700
C986        C  0.59927527  0.98463921  0.10110527     0.03300
C987        C  0.64777240  0.96577615  0.16778532     0.38000
C988        C  0.58409077  0.03352870  0.07945916     0.38000
C989        C  0.58187722  0.96945557  0.07802062     0.36400
C990        C  0.65510740  0.02928754  0.16543574     0.36400
N991        N  0.56813494  0.95736748  0.05949050    -0.38400
N992        N  0.67060086  0.04113679  0.18269729    -0.38400
N993        N  0.57079781  0.04719226  0.06183320    -0.37900
N994        N  0.65897065  0.95220354  0.18687564    -0.37900
C995        C  0.61710972  0.87529924  0.02779846    -0.04500
C996        C  0.60460416  0.85124024  0.01117328    -0.01700
C997        C  0.60645630  0.85098982  0.97946078     0.03300
C998        C  0.62030444  0.87509641  0.96406372    -0.04500
C999        C  0.63218629  0.89947071  0.98066954    -0.01700
C1000       C  0.63065638  0.89955002  0.01238751     0.03300
C1001       C  0.59037818  0.82639187  0.02674820     0.38000
C1002       C  0.64485550  0.92511897  0.96508242     0.38000
C1003       C  0.64185315  0.92527486  0.02913073     0.36400
C1004       C  0.59500612  0.82538787  0.96269523     0.36400
N1005       N  0.65061305  0.94589681  0.04243440    -0.38400
N1006       N  0.58603095  0.80492733  0.94928338    -0.38400
N1007       N  0.65480025  0.94570140  0.95272061    -0.37900
N1008       N  0.57893690  0.80666305  0.03923512    -0.37900
C1009       C  0.21789267  0.37801424  0.87013861    -0.04500
C1010       C  0.23372346  0.35707114  0.85198162    -0.01700
C1011       C  0.26547866  0.35696570  0.85144072     0.03300
C1012       C  0.28193186  0.37781778  0.86892087    -0.04500
C1013       C  0.26629025  0.39930627  0.88637326    -0.01700
C1014       C  0.23449329  0.39937520  0.88708966     0.03300
C1015       C  0.21746083  0.33577619  0.83325173     0.38000
C1016       C  0.28294910  0.42199754  0.90302106     0.38000
C1017       C  0.21916435  0.42099894  0.90611524     0.36400
C1018       C  0.28118277  0.33468250  0.83344298     0.36400
N1019       N  0.20729834  0.43844224  0.92136714    -0.38400
N1020       N  0.29364354  0.31687862  0.81909665    -0.38400
N1021       N  0.29630992  0.44009544  0.91617698    -0.37900
N1022       N  0.20448375  0.31873575  0.81841314    -0.37900
C1023       C  0.22123418  0.37683308  0.12064384    -0.04500
C1024       C  0.23617367  0.36005467  0.09808803    -0.01700
C1025       C  0.26795434  0.35956477  0.09680095     0.03300
C1026       C  0.28512618  0.37546421  0.11842909    -0.04500
C1027       C  0.27005145  0.39344607  0.14000761    -0.01700
C1028       C  0.23832986  0.39423786  0.14095875     0.03300
C1029       C  0.21878392  0.34378145  0.07569914     0.38000
C1030       C  0.28712628  0.41183646  0.16095944     0.38000
C1031       C  0.22341493  0.41247916  0.16347857     0.36400
C1032       C  0.28279892  0.34211242  0.07354464     0.36400
N1033       N  0.21190202  0.42727989  0.18151015    -0.38400
N1034       N  0.29454621  0.32833904  0.05482147    -0.38400
N1035       N  0.30071044  0.42649162  0.17767580    -0.37900
N1036       N  0.20487509  0.33089237  0.05783614    -0.37900
C1037       C  0.13037981  0.36997733  0.03159080    -0.04500
C1038       C  0.12408520  0.34346260  0.01489067    -0.01700
C1039       C  0.12341335  0.34400301  0.98311745     0.03300
C1040       C  0.12887174  0.37113174  0.96714970    -0.04500
C1041       C  0.13658400  0.39727226  0.98390618    -0.01700
C1042       C  0.13804265  0.39647673  0.01559162     0.03300
C1043       C  0.11836069  0.31511996  0.02999045     0.38000
C1044       C  0.14352817  0.42543762  0.96898007     0.38000
C1045       C  0.14893419  0.42300976  0.03138581     0.36400
C1046       C  0.11654995  0.31621680  0.96727398     0.36400
N1047       N  0.15777316  0.44414267  0.04381344    -0.38400
N1048       N  0.11122589  0.29391806  0.95488601    -0.38400
N1049       N  0.14880937  0.44816663  0.95753504    -0.37900
N1050       N  0.11408742  0.29231159  0.04169659    -0.37900
C1051       C  0.78211388  0.36905770  0.87731725    -0.04500
C1052       C  0.76544621  0.35098255  0.85709385    -0.01700
C1053       C  0.73370079  0.35222947  0.85685422     0.03300
C1054       C  0.71818160  0.37211387  0.87632513    -0.04500
C1055       C  0.73487796  0.38992981  0.89679851    -0.01700
C1056       C  0.76661186  0.38827772  0.89739687     0.03300
C1057       C  0.78090926  0.33169849  0.83574444     0.38000
C1058       C  0.71964431  0.41058399  0.91694210     0.38000
C1059       C  0.78325518  0.40585694  0.91935955     0.36400
C1060       C  0.71701723  0.33213703  0.83719443     0.36400
N1061       N  0.79654716  0.41980287  0.93689544    -0.38400
N1062       N  0.70367332  0.31603743  0.82164894    -0.38400
N1063       N  0.70781365  0.42710764  0.93320597    -0.37900
N1064       N  0.79320825  0.31635244  0.81867336    -0.37900
C1065       C  0.96809242  0.36600982  0.87491419    -0.04500
C1066       C  0.98446748  0.35196999  0.89814769    -0.01700
C1067       C  0.01624672  0.35332472  0.89842131     0.03300
C1068       C  0.03186879  0.36857528  0.87535825    -0.04500
C1069       C  0.01547782  0.38225922  0.85192687    -0.01700
C1070       C  0.98374001  0.38097403  0.85169480     0.03300
C1071       C  0.96854905  0.33717818  0.92245202     0.38000
C1072       C  0.03136057  0.39707398  0.82760303     0.38000
C1073       C  0.96719541  0.39434148  0.82703731     0.36400
C1074       C  0.03275810  0.34025878  0.92323312     0.36400
N1075       N  0.95401140  0.40491330  0.80732034    -0.38400
N1076       N  0.04578202  0.32997962  0.94320353    -0.38400
N1077       N  0.04415833  0.40883539  0.80826707    -0.37900
N1078       N  0.95575289  0.32546727  0.94182119    -0.37900
C1079       C  0.78554472  0.36865059  0.12528261    -0.04500
C1080       C  0.76905290  0.35234977  0.14696146    -0.01700
C1081       C  0.73729185  0.35341083  0.14719815     0.03300
C1082       C  0.72164148  0.37168699  0.12641756    -0.04500
C1083       C  0.73827648  0.38814698  0.10484051    -0.01700
C1084       C  0.76996713  0.38607371  0.10387028     0.03300
C1085       C  0.78477495  0.33517651  0.16973454     0.38000
C1086       C  0.72301286  0.40821535  0.08424860     0.38000
C1087       C  0.78649901  0.40109904  0.08010007     0.36400
C1088       C  0.72081226  0.33488737  0.16837670     0.36400
N1089       N  0.79972588  0.41283107  0.06103232    -0.38400
N1090       N  0.70769618  0.32002800  0.18520795    -0.38400
N1091       N  0.71091267  0.42438447  0.06793560    -0.37900
N1092       N  0.79734988  0.32161592  0.18795710    -0.37900
C1093       C  0.97156071  0.36568535  0.12658253    -0.04500
C1094       C  0.98801666  0.34679939  0.10693864    -0.01700
C1095       C  0.01981394  0.34714627  0.10724719     0.03300
C1096       C  0.03550769  0.36683615  0.12674946    -0.04500
C1097       C  0.01904389  0.38508910  0.14697317    -0.01700
C1098       C  0.98727985  0.38436726  0.14701940     0.03300
C1099       C  0.97232154  0.32778393  0.08550548     0.38000
C1100       C  0.03477730  0.40376765  0.16869058     0.38000
C1101       C  0.97078700  0.40198461  0.16903824     0.36400
C1102       C  0.03631022  0.32775221  0.08681318     0.36400
N1103       N  0.95756362  0.41586327  0.18666515    -0.38400
N1104       N  0.04944070  0.31213524  0.07063867    -0.38400
N1105       N  0.04731530  0.41857793  0.18607515    -0.37900
N1106       N  0.95986517  0.31263572  0.06835561    -0.37900
C1107       C  0.87803537  0.36511366  0.03277259    -0.04500
C1108       C  0.90044455  0.38060377  0.01640456    -0.01700
C1109       C  0.89989931  0.38058644  0.98471575     0.03300
C1110       C  0.87687698  0.36518480  0.96910209    -0.04500
C1111       C  0.85469597  0.34931043  0.98542358    -0.01700
C1112       C  0.85513756  0.34947496  0.01714944     0.03300
C1113       C  0.92467085  0.39583851  0.03215396     0.38000
C1114       C  0.83092212  0.33342450  0.96960325     0.38000
C1115       C  0.83122568  0.33466103  0.03369934     0.36400
C1116       C  0.92385495  0.39531078  0.96813394     0.36400
N1117       N  0.81207230  0.32299175  0.04690390    -0.38400
N1118       N  0.94301579  0.40684740  0.95482608    -0.38400
N1119       N  0.81205321  0.32067112  0.95694864    -0.37900
N1120       N  0.94399642  0.40795551  0.04473417    -0.37900
C1121       C  0.38226292  0.77900182  0.12905264    -0.04500
C1122       C  0.35617216  0.76352291  0.11856880    -0.01700
C1123       C  0.35579222  0.73186090  0.11665248     0.03300
C1124       C  0.38058012  0.71503671  0.12662895    -0.04500
C1125       C  0.40619858  0.72992688  0.13793859    -0.01700
C1126       C  0.40728417  0.76167910  0.13886571     0.03300
C1127       C  0.32912459  0.77962630  0.11012437     0.38000
C1128       C  0.43169690  0.71247472  0.14838244     0.38000
C1129       C  0.43395362  0.77608126  0.15106690     0.36400
C1130       C  0.32940633  0.71640067  0.10502144     0.36400
N1131       N  0.45534104  0.78732616  0.16081793    -0.38400
N1132       N  0.30847017  0.70404099  0.09565716    -0.38400
N1133       N  0.45202077  0.69863337  0.15679870    -0.37900
N1134       N  0.30723961  0.79214526  0.10376558    -0.37900
C1135       C  0.38389456  0.78300930  0.87875180    -0.04500
C1136       C  0.40963464  0.76671942  0.86863946    -0.01700
C1137       C  0.40841545  0.73510425  0.86516825     0.03300
C1138       C  0.38285678  0.71894493  0.87462547    -0.04500
C1139       C  0.35772828  0.73460216  0.88576985    -0.01700
C1140       C  0.35765015  0.76633736  0.88668240     0.03300
C1141       C  0.43756322  0.78199188  0.86130162     0.38000
C1142       C  0.33141661  0.71788880  0.89562474     0.38000
C1143       C  0.33002079  0.78125375  0.89551748     0.36400
C1144       C  0.43349930  0.71916252  0.85161679     0.36400
N1145       N  0.30757554  0.79271142  0.90203579    -0.38400
N1146       N  0.45335065  0.70659951  0.84038850    -0.38400
N1147       N  0.31055495  0.70452158  0.90361526    -0.37900
N1148       N  0.45998977  0.79389735  0.85547865    -0.37900
C1149       C  0.38446367  0.87643143  0.97323238    -0.04500
C1150       C  0.36712198  0.85474283  0.98867079    -0.01700
C1151       C  0.36845734  0.85279426  0.02023203     0.03300
C1152       C  0.38574464  0.87357059  0.03695066    -0.04500
C1153       C  0.40233663  0.89594739  0.02163786    -0.01700
C1154       C  0.40209328  0.89705091  0.98989900     0.03300
C1155       C  0.34797344  0.83405685  0.97223261     0.38000
C1156       C  0.41843872  0.91878244  0.03854968     0.38000
C1157       C  0.41882625  0.92042943  0.97449800     0.36400
C1158       C  0.35295154  0.82838502  0.03524546     0.36400
N1159       N  0.43210839  0.93910678  0.96222817    -0.38400
N1160       N  0.34069867  0.80850378  0.04660181    -0.38400
N1161       N  0.43102368  0.93713985  0.05212216    -0.37900
N1162       N  0.33223196  0.81765518  0.95952475    -0.37900
C1163       C  0.37739544  0.22012154  0.87190853    -0.04500
C1164       C  0.40325549  0.23700643  0.86318970    -0.01700
C1165       C  0.40231678  0.26875763  0.86224262     0.03300
C1166       C  0.37597795  0.28426102  0.87046927    -0.04500
C1167       C  0.35044539  0.26798956  0.87969992    -0.01700
C1168       C  0.35082955  0.23621085  0.87997113     0.03300
C1169       C  0.43113179  0.22223051  0.85484559     0.38000
C1170       C  0.32353743  0.28412150  0.88881927     0.38000
C1171       C  0.32357421  0.22058998  0.88886380     0.36400
C1172       C  0.42887545  0.28564910  0.85343135     0.36400
N1173       N  0.30161013  0.20841636  0.89577434    -0.38400
N1174       N  0.45008995  0.29901443  0.84641008    -0.38400
N1175       N  0.30217548  0.29700351  0.89624668    -0.37900
N1176       N  0.45361862  0.21080510  0.84841387    -0.37900
C1177       C  0.38148310  0.03352363  0.87527191    -0.04500
C1178       C  0.36504156  0.01824570  0.89773415    -0.01700
C1179       C  0.36512398  0.98653708  0.89882821     0.03300
C1180       C  0.38267569  0.96978000  0.87823376    -0.04500
C1181       C  0.39949633  0.98510862  0.85601718    -0.01700
C1182       C  0.39855907  0.01679939  0.85429219     0.03300
C1183       C  0.34904648  0.03520405  0.92062110     0.38000
C1184       C  0.41676927  0.96825755  0.83400305     0.38000
C1185       C  0.41416646  0.03209776  0.83009534     0.36400
C1186       C  0.34755789  0.97124463  0.92164551     0.36400
N1187       N  0.42645043  0.04428233  0.81068670    -0.38400
N1188       N  0.33335282  0.95907472  0.93971259    -0.38400
N1189       N  0.43044230  0.95481358  0.81638401    -0.37900
N1190       N  0.33653771  0.04880452  0.93896796    -0.37900
C1191       C  0.37318019  0.27801181  0.11913622    -0.04500
C1192       C  0.35767138  0.26252900  0.14236323    -0.01700
C1193       C  0.35751744  0.23076962  0.14322362     0.03300
C1194       C  0.37250874  0.21407837  0.12078533    -0.04500
C1195       C  0.38674930  0.22926843  0.09689849    -0.01700
C1196       C  0.38649354  0.26097009  0.09562920     0.03300
C1197       C  0.34062051  0.27906567  0.16479071     0.38000
C1198       C  0.40162786  0.21215967  0.07336200     0.38000
C1199       C  0.39991721  0.27566205  0.06983964     0.36400
C1200       C  0.34293615  0.21528040  0.16794439     0.36400
N1201       N  0.41035613  0.28713048  0.04897804    -0.38400
N1202       N  0.33142902  0.20296271  0.18773663    -0.38400
N1203       N  0.41359994  0.19847834  0.05471912    -0.37900
N1204       N  0.32685015  0.29219869  0.18257289    -0.37900
C1205       C  0.38143606  0.02890975  0.12476878    -0.04500
C1206       C  0.39574182  0.01457107  0.14914864    -0.01700
C1207       C  0.39732268  0.98290461  0.15026500     0.03300
C1208       C  0.38450267  0.96531344  0.12710890    -0.04500
C1209       C  0.37038359  0.97970770  0.10259237    -0.01700
C1210       C  0.36885076  0.01137759  0.10145123     0.03300
C1211       C  0.40752768  0.03235882  0.17389710     0.38000
C1212       C  0.35796245  0.96196276  0.07813760     0.38000
C1213       C  0.35487877  0.02597390  0.07592056     0.36400
C1214       C  0.41082696  0.96851620  0.17607990     0.36400
N1215       N  0.34376804  0.03769845  0.05559446    -0.38400
N1216       N  0.42151497  0.95741635  0.19694381    -0.38400
N1217       N  0.34806081  0.94787042  0.05859409    -0.37900
N1218       N  0.41676656  0.04650042  0.19372756    -0.37900
C1219       C  0.37987806  0.12527654  0.96621522    -0.04500
C1220       C  0.36399229  0.14705275  0.98307142    -0.01700
C1221       C  0.36317144  0.14545859  0.01474834     0.03300
C1222       C  0.37865169  0.12233612  0.02998057    -0.04500
C1223       C  0.39459018  0.10055127  0.01317592    -0.01700
C1224       C  0.39512310  0.10195501  0.98143119     0.03300
C1225       C  0.34935621  0.17184768  0.96792359     0.38000
C1226       C  0.40930695  0.07587332  0.02847539     0.38000
C1227       C  0.41034818  0.07865380  0.96436869     0.36400
C1228       C  0.34692146  0.16814322  0.03172242     0.36400
N1229       N  0.42236909  0.06003625  0.95069232    -0.38400
N1230       N  0.33395116  0.18619314  0.04529029    -0.38400
N1231       N  0.42090447  0.05609137  0.04065596    -0.37900
N1232       N  0.33778989  0.19181071  0.95603788    -0.37900
C1233       C  0.87555448  0.96693420  0.62537243    -0.04500
C1234       C  0.85308715  0.98310970  0.60989082    -0.01700
C1235       C  0.85375895  0.01482479  0.60938803     0.03300
C1236       C  0.87665257  0.03071370  0.62472784    -0.04500
C1237       C  0.89908453  0.01459010  0.64031528    -0.01700
C1238       C  0.89854290  0.98283180  0.64061673     0.03300
C1239       C  0.82862106  0.96714123  0.59528049     0.38000
C1240       C  0.92359717  0.03061705  0.65481801     0.38000
C1241       C  0.92246592  0.96658787  0.65554810     0.36400
C1242       C  0.83041488  0.03116248  0.59359143     0.36400
N1243       N  0.94175948  0.95389499  0.66741588    -0.38400
N1244       N  0.81193187  0.04432051  0.58094196    -0.38400
N1245       N  0.94326518  0.04334777  0.66622207    -0.37900
N1246       N  0.80905008  0.95439723  0.58373582    -0.37900
C1247       C  0.03202670  0.12379167  0.62011282    -0.04500
C1248       C  0.01663437  0.14776891  0.63425158    -0.01700
C1249       C  0.98489537  0.14824246  0.63482185     0.03300
C1250       C  0.96834178  0.12462374  0.62149646    -0.04500
C1251       C  0.98366936  0.10090546  0.60695273    -0.01700
C1252       C  0.01540096  0.10046480  0.60632190     0.03300
C1253       C  0.03347888  0.17242816  0.64753436     0.38000
C1254       C  0.96677275  0.07642758  0.59335859     0.38000
C1255       C  0.03073836  0.07522273  0.59262512     0.36400
C1256       C  0.96923672  0.17368047  0.64797018     0.36400
N1257       N  0.04231190  0.05463496  0.58174450    -0.38400
N1258       N  0.95669291  0.19405483  0.65823058    -0.38400
N1259       N  0.95328996  0.05694237  0.58251762    -0.37900
N1260       N  0.04696173  0.19206073  0.65810076    -0.37900
C1261       C  0.03351637  0.87577303  0.62470047    -0.04500
C1262       C  0.01744411  0.86585661  0.59896661    -0.01700
C1263       C  0.98562970  0.86654769  0.59837563     0.03300
C1264       C  0.96889637  0.87432951  0.62451905    -0.04500
C1265       C  0.98506660  0.88253780  0.65083864    -0.01700
C1266       C  0.01679547  0.88481108  0.65039490     0.03300
C1267       C  0.03328328  0.85367760  0.57310162     0.38000
C1268       C  0.96951071  0.88879600  0.67887588     0.38000
C1269       C  0.03182687  0.89744796  0.67654316     0.36400
C1270       C  0.97053443  0.85857725  0.57052148     0.36400
N1271       N  0.04359088  0.90768633  0.69739674    -0.38400
N1272       N  0.95876131  0.85242107  0.54814075    -0.38400
N1273       N  0.95745470  0.89343071  0.70148217    -0.37900
N1274       N  0.04568484  0.84370062  0.55248798    -0.37900
C1275       C  0.12962456  0.96883296  0.62176732    -0.04500
C1276       C  0.11602609  0.98411521  0.59741971    -0.01700
C1277       C  0.11792312  0.01573704  0.59519045     0.03300
C1278       C  0.13120320  0.03290181  0.61855200    -0.04500
C1279       C  0.14603393  0.01756230  0.64215794    -0.01700
C1280       C  0.14542946  0.98581733  0.64362708     0.03300
C1281       C  0.09880724  0.96758383  0.57509689     0.38000
C1282       C  0.16363766  0.03426682  0.66405382     0.38000
C1283       C  0.16210716  0.97073098  0.66720555     0.36400
C1284       C  0.10658653  0.03022853  0.56834258     0.36400
N1285       N  0.17548471  0.95876617  0.68596737    -0.38400
N1286       N  0.09810156  0.04149102  0.54654399    -0.38400
N1287       N  0.17787745  0.04752955  0.68138378    -0.37900
N1288       N  0.08491786  0.95448475  0.55736662    -0.37900
C1289       C  0.62002719  0.87812489  0.27810498    -0.04500
C1290       C  0.64077945  0.86032611  0.26182322    -0.01700
C1291       C  0.63958263  0.85900695  0.23011195     0.03300
C1292       C  0.61821208  0.87625636  0.21408295    -0.04500
C1293       C  0.59806703  0.89483077  0.23036893    -0.01700
C1294       C  0.59886894  0.89562025  0.26214986     0.03300
C1295       C  0.66431942  0.84425769  0.27762242     0.38000
C1296       C  0.57697139  0.91390717  0.21450013     0.38000
C1297       C  0.57741008  0.91407777  0.27841434     0.36400
C1298       C  0.65988060  0.83904005  0.21411404     0.36400
N1299       N  0.56033631  0.92883620  0.29139851    -0.38400
N1300       N  0.67598961  0.82307363  0.20132478    -0.38400
N1301       N  0.56016702  0.92916212  0.20186839    -0.37900
N1302       N  0.68326534  0.83166797  0.29017511    -0.37900
C1303       C  0.62290207  0.87134708  0.71412662    -0.04500
C1304       C  0.60327216  0.89120915  0.72949047    -0.01700
C1305       C  0.60295124  0.89227813  0.76122159     0.03300
C1306       C  0.62179261  0.87308853  0.77806695    -0.04500
C1307       C  0.64029013  0.85219758  0.76276874    -0.01700
C1308       C  0.64113551  0.85157040  0.73102957     0.03300
C1309       C  0.58244123  0.90985430  0.71275266     0.38000
C1310       C  0.65752661  0.83032897  0.77966034     0.38000
C1311       C  0.66136434  0.83089908  0.71588796     0.36400
C1312       C  0.58350640  0.91362615  0.77645525     0.36400
N1313       N  0.67745787  0.81439695  0.70378204    -0.38400
N1314       N  0.56793498  0.93063300  0.78853670    -0.38400
N1315       N  0.67105213  0.81270791  0.79310566    -0.37900
N1316       N  0.56570946  0.92461268  0.69945226    -0.37900
C1317       C  0.78202235  0.87421955  0.62194304    -0.04500
C1318       C  0.76620081  0.85371921  0.60342293    -0.01700
C1319       C  0.73444052  0.85398608  0.60259783     0.03300
C1320       C  0.71799356  0.87408091  0.62105581    -0.04500
C1321       C  0.73385541  0.89457159  0.63964421    -0.01700
C1322       C  0.76565974  0.89493313  0.63971562     0.03300
C1323       C  0.78252377  0.83155532  0.58584925     0.38000
C1324       C  0.71758949  0.91472681  0.65953808     0.38000
C1325       C  0.78153025  0.91736595  0.65740850     0.36400
C1326       C  0.71877063  0.83408577  0.58194286     0.36400
N1327       N  0.79421903  0.93535237  0.67135648    -0.38400
N1328       N  0.70621618  0.81833123  0.56541856    -0.38400
N1329       N  0.70466488  0.93074926  0.67548984    -0.37900
N1330       N  0.79550071  0.81378096  0.57193342    -0.37900
C1331       C  0.62182381  0.87515927  0.46434013    -0.04500
C1332       C  0.64528550  0.88954489  0.48029173    -0.01700
C1333       C  0.64643257  0.88798120  0.51197970     0.03300
C1334       C  0.62410011  0.87204887  0.52803967    -0.04500
C1335       C  0.60061552  0.85767763  0.51210184    -0.01700
C1336       C  0.59924982  0.85957738  0.48042632     0.03300
C1337       C  0.66865947  0.90550574  0.46404648     0.38000
C1338       C  0.57728873  0.84166444  0.52836786     0.38000
C1339       C  0.57368189  0.84696646  0.46451014     0.36400
C1340       C  0.67124560  0.90186514  0.52803636     0.36400
N1341       N  0.55308820  0.83725037  0.45184433    -0.38400
N1342       N  0.69108183  0.91280179  0.54091646    -0.38400
N1343       N  0.55874959  0.82886877  0.54138322    -0.37900
N1344       N  0.68722058  0.91827449  0.45103917    -0.37900
C1345       C  0.28364696  0.87351746  0.63180428    -0.04500
C1346       C  0.26884002  0.89055726  0.60957408    -0.01700
C1347       C  0.23714359  0.89128734  0.60848428     0.03300
C1348       C  0.21994054  0.87441821  0.62924564    -0.04500
C1349       C  0.23488093  0.85710842  0.65131820    -0.01700
C1350       C  0.26657689  0.85701183  0.65281699     0.03300
C1351       C  0.28625215  0.90663495  0.58714476     0.38000
C1352       C  0.21778620  0.83843744  0.67188658     0.38000
C1353       C  0.28161481  0.84060617  0.67659550     0.36400
C1354       C  0.22237391  0.91012090  0.58640842     0.36400
N1355       N  0.29360691  0.82769846  0.69566534    -0.38400
N1356       N  0.21065669  0.92519314  0.56881631    -0.38400
N1357       N  0.20415119  0.82343350  0.68817259    -0.37900
N1358       N  0.30021263  0.91932058  0.56924286    -0.37900
C1359       C  0.38170757  0.87533336  0.78810806    -0.04500
C1360       C  0.37120791  0.90027307  0.77185571    -0.01700
C1361       C  0.36982017  0.89917196  0.74019987     0.03300
C1362       C  0.37837592  0.87263107  0.72438309    -0.04500
C1363       C  0.38780888  0.84722290  0.74121865    -0.01700
C1364       C  0.38999708  0.84890979  0.77277804     0.03300
C1365       C  0.36184215  0.92723884  0.78777751     0.38000
C1366       C  0.39510496  0.81893890  0.72661021     0.38000
C1367       C  0.39996146  0.82290197  0.78958812     0.36400
C1368       C  0.35859397  0.92533806  0.72437565     0.36400
N1369       N  0.40788032  0.80189346  0.80256610    -0.38400
N1370       N  0.34972615  0.94633370  0.71193129    -0.38400
N1371       N  0.40062938  0.79611419  0.71534760    -0.37900
N1372       N  0.35418982  0.94873321  0.80032977    -0.37900
C1373       C  0.46877780  0.86771958  0.62688443    -0.04500
C1374       C  0.48333036  0.88164394  0.60234724    -0.01700
C1375       C  0.51498371  0.88182767  0.60045129     0.03300
C1376       C  0.53232782  0.86801492  0.62302691    -0.04500
C1377       C  0.51784451  0.85356288  0.64728790    -0.01700
C1378       C  0.48614932  0.85339471  0.64919920     0.03300
C1379       C  0.46573982  0.89495461  0.57842798     0.38000
C1380       C  0.53559269  0.83991989  0.67096338     0.38000
C1381       C  0.47157882  0.83953002  0.67480904     0.36400
C1382       C  0.52969656  0.89548273  0.57476377     0.36400
N1383       N  0.46026291  0.82846952  0.69541514    -0.38400
N1384       N  0.54140845  0.90628351  0.55422329    -0.38400
N1385       N  0.54976408  0.82911796  0.68985773    -0.37900
N1386       N  0.45187344  0.90549266  0.55918710    -0.37900
C1387       C  0.37549714  0.87206992  0.28683708    -0.04500
C1388       C  0.35281163  0.85889499  0.26902915    -0.01700
C1389       C  0.35581499  0.85784094  0.23745816     0.03300
C1390       C  0.38128084  0.87080839  0.22310921    -0.04500
C1391       C  0.40468752  0.88275673  0.24131573    -0.01700
C1392       C  0.40157779  0.88366651  0.27293307     0.03300
C1393       C  0.32591478  0.84697719  0.28321652     0.38000
C1394       C  0.43238832  0.89367274  0.22797006     0.38000
C1395       C  0.42571879  0.89582760  0.29130301     0.36400
C1396       C  0.33332616  0.84173195  0.22005702     0.36400
N1397       N  0.44499216  0.90549684  0.30590996    -0.38400
N1398       N  0.31554742  0.82864929  0.20621560    -0.38400
N1399       N  0.45480802  0.90201297  0.21767613    -0.37900
N1400       N  0.30442587  0.83760876  0.29454000    -0.37900
C1401       C  0.46397860  0.87155587  0.37883846    -0.04500
C1402       C  0.47936679  0.85453148  0.35677297    -0.01700
C1403       C  0.51103978  0.85599301  0.35458656     0.03300
C1404       C  0.52772285  0.87439721  0.37449382    -0.04500
C1405       C  0.51238791  0.89114864  0.39678569    -0.01700
C1406       C  0.48070952  0.88971490  0.39895703     0.03300
C1407       C  0.46258227  0.83638346  0.33540850     0.38000
C1408       C  0.52925336  0.90905944  0.41830369     0.38000
C1409       C  0.46549288  0.90612783  0.42272513     0.36400
C1410       C  0.52635218  0.83937655  0.33100679     0.36400
N1411       N  0.45354045  0.91918865  0.44181301    -0.38400
N1412       N  0.53859499  0.82617396  0.31219465    -0.38400
N1413       N  0.54272107  0.92328923  0.43547682    -0.37900
N1414       N  0.44918832  0.82196537  0.31833754    -0.37900
C1415       C  0.37035512  0.87077987  0.47313612    -0.04500
C1416       C  0.36400008  0.84407145  0.48950179    -0.01700
C1417       C  0.36541020  0.84374862  0.52128488     0.03300
C1418       C  0.37281732  0.87015284  0.53774072    -0.04500
C1419       C  0.37860338  0.89699702  0.52137254    -0.01700
C1420       C  0.37748844  0.89723507  0.48963738     0.03300
C1421       C  0.35544738  0.81655219  0.47408461     0.38000
C1422       C  0.38632987  0.92483935  0.53670175     0.38000
C1423       C  0.38435360  0.92528057  0.47435355     0.36400
C1424       C  0.35869926  0.81574804  0.53670840     0.36400
N1425       N  0.38975226  0.94775835  0.46252638    -0.38400
N1426       N  0.35347116  0.79333696  0.54874013    -0.38400
N1427       N  0.39249411  0.94720676  0.54862641    -0.37900
N1428       N  0.34870596  0.79433729  0.46219182    -0.37900
C1429       C  0.87280605  0.37069529  0.72027658    -0.04500
C1430       C  0.89255847  0.35094799  0.73540037    -0.01700
C1431       C  0.89296181  0.35001974  0.76706858     0.03300
C1432       C  0.87335008  0.36851737  0.78394124    -0.04500
C1433       C  0.85317724  0.38778865  0.76884049    -0.01700
C1434       C  0.85325399  0.38925344  0.73720269     0.03300
C1435       C  0.91208021  0.33097071  0.71846516     0.38000
C1436       C  0.83144321  0.40533080  0.78578091     0.38000
C1437       C  0.83390138  0.41074958  0.72220598     0.36400
C1438       C  0.91411397  0.33041925  0.78223926     0.36400
N1439       N  0.81858400  0.42798066  0.71024933    -0.38400
N1440       N  0.93093921  0.31476847  0.79434695    -0.38400
N1441       N  0.81397864  0.41913747  0.79928507    -0.37900
N1442       N  0.92766444  0.31505080  0.70498451    -0.37900
C1443       C  0.87196299  0.28059850  0.62498079    -0.04500
C1444       C  0.89164746  0.26502489  0.60534593    -0.01700
C1445       C  0.89248743  0.23327217  0.60515398     0.03300
C1446       C  0.87352763  0.21659548  0.62444722    -0.04500
C1447       C  0.85390143  0.23212212  0.64415193    -0.01700
C1448       C  0.85310062  0.26388541  0.64439917     0.03300
C1449       C  0.91075690  0.28155328  0.58474465     0.38000
C1450       C  0.83408562  0.21545230  0.66400395     0.38000
C1451       C  0.83348753  0.27928352  0.66549102     0.36400
C1452       C  0.91384200  0.21784127  0.58584448     0.36400
N1453       N  0.81783958  0.29151112  0.68233471    -0.38400
N1454       N  0.93094804  0.20556570  0.57052380    -0.38400
N1455       N  0.81838693  0.20213639  0.67990626    -0.37900
N1456       N  0.92609401  0.29457614  0.56827654    -0.37900
C1457       C  0.87500265  0.37178253  0.28233776    -0.04500
C1458       C  0.89761831  0.35501172  0.26726089    -0.01700
C1459       C  0.89886016  0.35438955  0.23552303     0.03300
C1460       C  0.87717864  0.36987894  0.21839040    -0.04500
C1461       C  0.85454632  0.38651074  0.23325207    -0.01700
C1462       C  0.85353237  0.38763217  0.26497606     0.03300
C1463       C  0.91923329  0.33751496  0.28421807     0.38000
C1464       C  0.83178404  0.40203948  0.21583963     0.38000
C1465       C  0.83072693  0.40588591  0.27954601     0.36400
C1466       C  0.92320359  0.33866934  0.22045741     0.36400
N1467       N  0.81249410  0.42046458  0.29107402    -0.38400
N1468       N  0.94271211  0.32634637  0.20839441    -0.38400
N1469       N  0.81367286  0.41437375  0.20188631    -0.37900
N1470       N  0.93646468  0.32349959  0.29768479    -0.37900
C1471       C  0.87074754  0.37630295  0.46935193    -0.04500
C1472       C  0.89730085  0.36952229  0.48582522    -0.01700
C1473       C  0.89734214  0.36978963  0.51757842     0.03300
C1474       C  0.87065294  0.37601193  0.53405735    -0.04500
C1475       C  0.84399052  0.38251022  0.51763716    -0.01700
C1476       C  0.84419432  0.38321026  0.48580530     0.03300
C1477       C  0.92517125  0.36177950  0.47057152     0.38000
C1478       C  0.81589143  0.38887686  0.53308843     0.38000
C1479       C  0.81672991  0.39181364  0.47038614     0.36400
C1480       C  0.92544265  0.36313345  0.53286525     0.36400
N1481       N  0.79470645  0.39873299  0.45842079    -0.38400
N1482       N  0.94803732  0.35803366  0.54468893    -0.38400
N1483       N  0.79332518  0.39383729  0.54512170    -0.37900
N1484       N  0.94760294  0.35571788  0.45880687    -0.37900
C1485       C  0.87553531  0.78100976  0.62211929    -0.04500
C1486       C  0.85169501  0.76489917  0.63542827    -0.01700
C1487       C  0.85239810  0.73316368  0.63659366     0.03300
C1488       C  0.87653940  0.71688682  0.62328818    -0.04500
C1489       C  0.90019618  0.73332659  0.60945744    -0.01700
C1490       C  0.89993417  0.76511984  0.60951097     0.03300
C1491       C  0.82607513  0.78107963  0.64764530     0.38000
C1492       C  0.92480421  0.71786599  0.59459406     0.38000
C1493       C  0.92566979  0.78148481  0.59793592     0.36400
C1494       C  0.82860392  0.71764546  0.65265966     0.36400
N1495       N  0.94653039  0.79425252  0.58906026    -0.38400
N1496       N  0.80962743  0.70539841  0.66559406    -0.38400
N1497       N  0.94454843  0.70577945  0.58268417    -0.37900
N1498       N  0.80564535  0.79403457  0.65726197    -0.37900
C1499       C  0.87977772  0.62699871  0.71864983    -0.04500
C1500       C  0.89919889  0.64731209  0.73367831    -0.01700
C1501       C  0.89909091  0.64911775  0.76536633     0.03300
C1502       C  0.88003003  0.63017030  0.78239563    -0.04500
C1503       C  0.86093285  0.60959759  0.76732932    -0.01700
C1504       C  0.86087857  0.60797199  0.73568321     0.03300
C1505       C  0.91916056  0.66669527  0.71661767     0.38000
C1506       C  0.84060123  0.59052816  0.78429723     0.38000
C1507       C  0.84211923  0.58577235  0.72072227     0.36400
C1508       C  0.91916555  0.67011631  0.78035932     0.36400
N1509       N  0.82725922  0.56801465  0.70877288    -0.38400
N1510       N  0.93508557  0.68697023  0.79225993    -0.38400
N1511       N  0.82442320  0.57531093  0.79784175    -0.37900
N1512       N  0.93525899  0.68199990  0.70306925    -0.37900
C1513       C  0.87623441  0.53036204  0.62889585    -0.04500
C1514       C  0.86198343  0.51443388  0.60537448    -0.01700
C1515       C  0.86043194  0.48277128  0.60592306     0.03300
C1516       C  0.87285931  0.46666149  0.63016248    -0.04500
C1517       C  0.88721519  0.48250593  0.65374232    -0.01700
C1518       C  0.88921189  0.51425411  0.65294411     0.03300
C1519       C  0.85022165  0.53055377  0.57970456     0.38000
C1520       C  0.89911834  0.46615116  0.67924929     0.38000
C1521       C  0.90425789  0.53032477  0.67705326     0.36400
C1522       C  0.84730390  0.46670864  0.58072001     0.36400
N1523       N  0.91641735  0.54309027  0.69622909    -0.38400
N1524       N  0.83701842  0.45401630  0.56045238    -0.38400
N1525       N  0.90840423  0.45301356  0.69962880    -0.37900
N1526       N  0.84103231  0.54324028  0.55902914    -0.37900
C1527       C  0.87232025  0.62604318  0.28132989    -0.04500
C1528       C  0.88116460  0.60099629  0.26412455    -0.01700
C1529       C  0.88104201  0.60236052  0.23239834     0.03300
C1530       C  0.87292842  0.62945031  0.21733195    -0.04500
C1531       C  0.86369649  0.65446008  0.23513915    -0.01700
C1532       C  0.86252322  0.65228834  0.26676052     0.03300
C1533       C  0.88895333  0.57313930  0.27909055     0.38000
C1534       C  0.85509148  0.68273421  0.22149310     0.38000
C1535       C  0.85061592  0.67707436  0.28441156     0.36400
C1536       C  0.88931053  0.57545137  0.21581378     0.36400
N1537       N  0.84063354  0.69666368  0.29835796    -0.38400
N1538       N  0.89570308  0.55376055  0.20288033    -0.38400
N1539       N  0.84851634  0.70557989  0.21103899    -0.37900
N1540       N  0.89485997  0.55066844  0.29066208    -0.37900
C1541       C  0.87389640  0.53206284  0.37529570    -0.04500
C1542       C  0.84905302  0.51590395  0.38711038    -0.01700
C1543       C  0.84886512  0.48415965  0.38702102     0.03300
C1544       C  0.87366519  0.46777010  0.37539105    -0.04500
C1545       C  0.89900943  0.48391936  0.36461961    -0.01700
C1546       C  0.89906194  0.51566860  0.36439755     0.03300
C1547       C  0.82375436  0.53166311  0.40051569     0.38000
C1548       C  0.92528359  0.46817058  0.35320334     0.38000
C1549       C  0.92515427  0.53111416  0.35217743     0.36400
C1550       C  0.82323474  0.46863942  0.40006911     0.36400
N1551       N  0.94604684  0.54320544  0.34240141    -0.38400
N1552       N  0.80267230  0.45649403  0.41044159    -0.38400
N1553       N  0.94642862  0.45584376  0.34433310    -0.37900
N1554       N  0.80346798  0.54398782  0.41119750    -0.37900
C1555       C  0.87484129  0.62251258  0.53228546    -0.04500
C1556       C  0.84832972  0.61503218  0.51601394    -0.01700
C1557       C  0.84795589  0.61575327  0.48419925     0.03300
C1558       C  0.87370604  0.62513340  0.46769217    -0.04500
C1559       C  0.89979300  0.63370942  0.48402004    -0.01700
C1560       C  0.90063781  0.63165135  0.51571782     0.03300
C1561       C  0.82099881  0.60615121  0.53160220     0.38000
C1562       C  0.92594051  0.64582965  0.46859570     0.38000
C1563       C  0.92845522  0.63962783  0.53091651     0.36400
C1564       C  0.82071003  0.60626089  0.46882899     0.36400
N1565       N  0.95084180  0.64574212  0.54273681    -0.38400
N1566       N  0.79879800  0.59874094  0.45692167    -0.38400
N1567       N  0.94685132  0.65559995  0.45655638    -0.37900
N1568       N  0.79901600  0.59920738  0.54371243    -0.37900
C1569       C  0.37580222  0.12574791  0.71578774    -0.04500
C1570       C  0.35551190  0.10783389  0.73244477    -0.01700
C1571       C  0.35699153  0.10721017  0.76417428     0.03300
C1572       C  0.37828883  0.12515600  0.77979936    -0.04500
C1573       C  0.39856514  0.14309275  0.76299691    -0.01700
C1574       C  0.39731395  0.14336484  0.73127107     0.03300
C1575       C  0.33227109  0.09079842  0.71702353     0.38000
C1576       C  0.42061437  0.16180924  0.77813451     0.38000
C1577       C  0.41881983  0.16133627  0.71453034     0.36400
C1578       C  0.33723951  0.08706458  0.78056512     0.36400
N1579       N  0.43594766  0.17563308  0.70114243    -0.38400
N1580       N  0.32159248  0.07088067  0.79360855    -0.38400
N1581       N  0.43843552  0.17671095  0.78990592    -0.37900
N1582       N  0.31359095  0.07738876  0.70477223    -0.37900
C1583       C  0.28259123  0.12629215  0.62209160    -0.04500
C1584       C  0.26682356  0.13766474  0.64711741    -0.01700
C1585       C  0.23502016  0.13783690  0.64741474     0.03300
C1586       C  0.21844989  0.12751126  0.62204925    -0.04500
C1587       C  0.23464750  0.11551483  0.59715980    -0.01700
C1588       C  0.26645103  0.11490651  0.59730129     0.03300
C1589       C  0.28347342  0.14840372  0.67310093     0.38000
C1590       C  0.21888448  0.10227902  0.57179771     0.38000
C1591       C  0.28267851  0.10277482  0.57167141     0.36400
C1592       C  0.21980829  0.14811680  0.67437392     0.36400
N1593       N  0.29560506  0.09305099  0.55126690    -0.38400
N1594       N  0.20809731  0.15577744  0.69632020    -0.38400
N1595       N  0.20640482  0.09161192  0.55158117    -0.37900
N1596       N  0.29678693  0.15692805  0.69378311    -0.37900
C1597       C  0.37317380  0.12217143  0.21574306    -0.04500
C1598       C  0.38948787  0.14379055  0.23242473    -0.01700
C1599       C  0.38894011  0.14336822  0.26414617     0.03300
C1600       C  0.37109200  0.12198992  0.27965123    -0.04500
C1601       C  0.35419585  0.10080577  0.26282482    -0.01700
C1602       C  0.35557829  0.10064517  0.23112608     0.03300
C1603       C  0.40599504  0.16730534  0.21696963     0.38000
C1604       C  0.33459247  0.07954627  0.27789665     0.38000
C1605       C  0.33940451  0.07768607  0.21438950     0.36400
C1606       C  0.40764655  0.16447088  0.28067542     0.36400
N1607       N  0.32655936  0.05934176  0.20106692    -0.38400
N1608       N  0.42262445  0.18124221  0.29384517    -0.38400
N1609       N  0.31886423  0.06252840  0.28970505    -0.37900
N1610       N  0.41895947  0.18619676  0.20466401    -0.37900
C1611       C  0.37191099  0.12250516  0.46582145    -0.04500
C1612       C  0.39230136  0.10379808  0.48144634    -0.01700
C1613       C  0.39392256  0.10484571  0.51316180     0.03300
C1614       C  0.37488258  0.12427692  0.52969564    -0.04500
C1615       C  0.35457337  0.14302352  0.51406896    -0.01700
C1616       C  0.35318389  0.14222029  0.48237762     0.03300
C1617       C  0.41250330  0.08417972  0.46491596     0.38000
C1618       C  0.33420946  0.16250569  0.53057970     0.38000
C1619       C  0.33159992  0.16109028  0.46693623     0.36400
C1620       C  0.41620487  0.08682976  0.52867072     0.36400
N1621       N  0.31437054  0.17621066  0.45473982    -0.38400
N1622       N  0.43407801  0.07261515  0.54105413    -0.38400
N1623       N  0.31796313  0.17803492  0.54372660    -0.37900
N1624       N  0.42861263  0.06850092  0.45177531    -0.37900
C1625       C  0.78251358  0.12276111  0.62526943    -0.04500
C1626       C  0.76676749  0.14050468  0.60409619    -0.01700
C1627       C  0.73501842  0.14061370  0.60359026     0.03300
C1628       C  0.71845634  0.12355488  0.62457109    -0.04500
C1629       C  0.73407456  0.10582785  0.64577764    -0.01700
C1630       C  0.76589881  0.10517822  0.64593741     0.03300
C1631       C  0.78309587  0.15923588  0.58295095     0.38000
C1632       C  0.71740823  0.08868980  0.66796005     0.38000
C1633       C  0.78139783  0.08540790  0.66664077     0.36400
C1634       C  0.71948494  0.15741104  0.58049024     0.36400
N1635       N  0.79372341  0.06950953  0.68305593    -0.38400
N1636       N  0.70745054  0.17073097  0.56176639    -0.38400
N1637       N  0.70409182  0.07509171  0.68567713    -0.37900
N1638       N  0.79607770  0.17410198  0.56602404    -0.37900
C1639       C  0.62563769  0.12375355  0.71730334    -0.04500
C1640       C  0.61473155  0.09854072  0.73364321    -0.01700
C1641       C  0.61200150  0.09992912  0.76520657     0.03300
C1642       C  0.62082539  0.12598874  0.78093164    -0.04500
C1643       C  0.63265060  0.15068345  0.76512210    -0.01700
C1644       C  0.63560248  0.14945968  0.73360117     0.03300
C1645       C  0.60682712  0.07067370  0.71852118     0.38000
C1646       C  0.64145365  0.17766449  0.78138005     0.38000
C1647       C  0.65069838  0.17412074  0.71849507     0.36400
C1648       C  0.60087933  0.07405679  0.78162942     0.36400
N1649       N  0.66303743  0.19372191  0.70666333    -0.38400
N1650       N  0.59203673  0.05327285  0.79446954    -0.38400
N1651       N  0.64835834  0.19920474  0.79431077    -0.37900
N1652       N  0.60076612  0.04826901  0.70667255    -0.37900
C1653       C  0.53223805  0.12420666  0.62392659    -0.04500
C1654       C  0.51593617  0.11330125  0.64886209    -0.01700
C1655       C  0.48416198  0.11348052  0.64865684     0.03300
C1656       C  0.46844005  0.12429646  0.62336272    -0.04500
C1657       C  0.48471504  0.13498354  0.59829052    -0.01700
C1658       C  0.51651665  0.13498832  0.59858496     0.03300
C1659       C  0.53183438  0.10264230  0.67515085     0.38000
C1660       C  0.46868723  0.14514927  0.57182764     0.38000
C1661       C  0.53308302  0.14520012  0.57242421     0.36400
C1662       C  0.46765150  0.10346724  0.67492710     0.36400
N1663       N  0.54629256  0.15323241  0.55151152    -0.38400
N1664       N  0.45457438  0.09559165  0.69597874    -0.38400
N1665       N  0.45582762  0.15313975  0.55072302    -0.37900
N1666       N  0.54428947  0.09416923  0.69628221    -0.37900
C1667       C  0.62623149  0.12113497  0.28098901    -0.04500
C1668       C  0.63989142  0.14527255  0.26516064    -0.01700
C1669       C  0.64089021  0.14502829  0.23347983     0.03300
C1670       C  0.62782191  0.12109141  0.21727882    -0.04500
C1671       C  0.61562976  0.09636103  0.23274514    -0.01700
C1672       C  0.61522429  0.09606197  0.26440658     0.03300
C1673       C  0.65382641  0.17012373  0.28119141     0.38000
C1674       C  0.60410903  0.07074905  0.21599738     0.38000
C1675       C  0.60329743  0.06973254  0.27948155     0.36400
C1676       C  0.65507935  0.16967119  0.21746720     0.36400
N1677       N  0.59401589  0.04851777  0.29131154    -0.38400
N1678       N  0.66656599  0.18918600  0.20468274    -0.38400
N1679       N  0.59496778  0.05023228  0.20279701    -0.37900
N1680       N  0.66493559  0.19001631  0.29384170    -0.37900
C1681       C  0.52681216  0.12163764  0.37130389    -0.04500
C1682       C  0.51092523  0.13447539  0.39567549    -0.01700
C1683       C  0.47915039  0.13430601  0.39599660     0.03300
C1684       C  0.46295528  0.12098001  0.37212554    -0.04500
C1685       C  0.47877692  0.10807505  0.34777021    -0.01700
C1686       C  0.51058335  0.10869011  0.34721709     0.03300
C1687       C  0.52733424  0.14733472  0.42080461     0.38000
C1688       C  0.46227638  0.09520491  0.32268836     0.38000
C1689       C  0.52641333  0.09754186  0.32101752     0.36400
C1690       C  0.46307054  0.14720016  0.42131151     0.36400
N1691       N  0.53852343  0.08895298  0.29965851    -0.38400
N1692       N  0.45015334  0.15745457  0.44145779    -0.38400
N1693       N  0.44908616  0.08499251  0.30269041    -0.37900
N1694       N  0.54048716  0.15752794  0.44083143    -0.37900
C1695       C  0.61672950  0.12639695  0.46688395    -0.04500
C1696       C  0.62725017  0.15201948  0.48280835    -0.01700
C1697       C  0.62965886  0.15162770  0.51444003     0.03300
C1698       C  0.62105350  0.12576654  0.53103212    -0.04500
C1699       C  0.60852536  0.10097232  0.51521413    -0.01700
C1700       C  0.60632237  0.10132406  0.48355102     0.03300
C1701       C  0.63551964  0.17937028  0.46704198     0.38000
C1702       C  0.59646456  0.07526518  0.53132376     0.38000
C1703       C  0.59172683  0.07624549  0.46846208     0.36400
C1704       C  0.64105768  0.17833034  0.52948580     0.36400
N1705       N  0.57992219  0.05624639  0.45661661    -0.38400
N1706       N  0.64981511  0.19996960  0.54108812    -0.38400
N1707       N  0.58678039  0.05476374  0.54402999    -0.37900
N1708       N  0.64182626  0.20140632  0.45479957    -0.37900
C1709       C  0.12682535  0.62474743  0.72316325    -0.04500
C1710       C  0.14886637  0.60825584  0.73920407    -0.01700
C1711       C  0.14954946  0.60894054  0.77094625     0.03300
C1712       C  0.12814495  0.62587349  0.78717221    -0.04500
C1713       C  0.10554541  0.64155002  0.77141390    -0.01700
C1714       C  0.10477819  0.64094127  0.73965333     0.03300
C1715       C  0.17032844  0.58952737  0.72325501     0.38000
C1716       C  0.08240684  0.65763175  0.78795838     0.38000
C1717       C  0.08129668  0.65737822  0.72420815     0.36400
C1718       C  0.17282533  0.59268872  0.78695731     0.36400
N1719       N  0.06230630  0.67034338  0.71212237    -0.38400
N1720       N  0.19132563  0.57976887  0.79983287    -0.38400
N1721       N  0.06392040  0.67035709  0.80116164    -0.37900
N1722       N  0.18742292  0.57449242  0.71062334    -0.37900
C1723       C  0.12735010  0.71908302  0.63016125    -0.04500
C1724       C  0.15375787  0.73569149  0.62256999    -0.01700
C1725       C  0.15333293  0.76744013  0.62215276     0.03300
C1726       C  0.12694951  0.78318347  0.62968037    -0.04500
C1727       C  0.10085316  0.76721637  0.63775219    -0.01700
C1728       C  0.10086098  0.73543757  0.63790863     0.03300
C1729       C  0.18167350  0.72066245  0.61480474     0.38000
C1730       C  0.07367778  0.78367350  0.64537377     0.38000
C1731       C  0.07335261  0.72007776  0.64645359     0.36400
C1732       C  0.18033381  0.78409820  0.61423975     0.36400
N1733       N  0.05119434  0.70812271  0.65310974    -0.38400
N1734       N  0.20184928  0.79733164  0.60791112    -0.38400
N1735       N  0.05206645  0.79686175  0.65140999    -0.37900
N1736       N  0.20414817  0.70899960  0.60875609    -0.37900
C1737       C  0.12725982  0.63409755  0.28654504    -0.04500
C1738       C  0.10810312  0.65454904  0.27149372    -0.01700
C1739       C  0.10858196  0.65663638  0.23973404     0.03300
C1740       C  0.12777653  0.63789515  0.22258670    -0.04500
C1741       C  0.14772884  0.61837155  0.23766420    -0.01700
C1742       C  0.14752038  0.61649279  0.26933801     0.03300
C1743       C  0.08841146  0.67414864  0.28863380     0.38000
C1744       C  0.16935960  0.60082596  0.22059077     0.38000
C1745       C  0.16788686  0.59576766  0.28406107     0.36400
C1746       C  0.08896705  0.67786475  0.22473843     0.36400
N1747       N  0.18424310  0.57936411  0.29580690    -0.38400
N1748       N  0.07351473  0.69496557  0.21276394    -0.38400
N1749       N  0.18667093  0.58695363  0.20696056    -0.37900
N1750       N  0.07267784  0.68982571  0.30222597    -0.37900
C1751       C  0.12860842  0.62257246  0.47259194    -0.04500
C1752       C  0.14443073  0.64534040  0.48826922    -0.01700
C1753       C  0.14462209  0.64590225  0.52001644     0.03300
C1754       C  0.12876052  0.62388292  0.53651848    -0.04500
C1755       C  0.11327760  0.60084913  0.52083561    -0.01700
C1756       C  0.11353732  0.59999378  0.48904172     0.03300
C1757       C  0.15991407  0.66880374  0.47172216     0.38000
C1758       C  0.09784795  0.57741246  0.53743288     0.38000
C1759       C  0.09969368  0.57496747  0.47327153     0.36400
C1760       C  0.16030048  0.66991235  0.53562133     0.36400
N1761       N  0.08901169  0.55481073  0.46067763    -0.38400
N1762       N  0.17284852  0.68917361  0.54786426    -0.38400
N1763       N  0.08554186  0.55876291  0.55073572    -0.37900
N1764       N  0.17227593  0.68748174  0.45851171    -0.37900
C1765       C  0.11700805  0.28336011  0.62448217    -0.04500
C1766       C  0.09951182  0.26697837  0.60356428    -0.01700
C1767       C  0.10009589  0.23514456  0.60341817     0.03300
C1768       C  0.11852001  0.21929319  0.62398876    -0.04500
C1769       C  0.13494756  0.23586896  0.64573947    -0.01700
C1770       C  0.13427790  0.26759915  0.64587445     0.03300
C1771       C  0.08166424  0.28288432  0.58145615     0.38000
C1772       C  0.15302536  0.22051990  0.66799710     0.38000
C1773       C  0.15104931  0.28406740  0.66859462     0.36400
C1774       C  0.08073414  0.21882085  0.58279059     0.36400
N1775       N  0.16442477  0.29716287  0.68670652    -0.38400
N1776       N  0.06509002  0.20589729  0.56645202    -0.38400
N1777       N  0.16724042  0.20849687  0.68607432    -0.37900
N1778       N  0.06750641  0.29564595  0.56381800    -0.37900
C1779       C  0.12143220  0.37651289  0.71700676    -0.04500
C1780       C  0.10276784  0.35640764  0.73304725    -0.01700
C1781       C  0.10305728  0.35618571  0.76476461     0.03300
C1782       C  0.12204390  0.37607139  0.78086676    -0.04500
C1783       C  0.14033356  0.39656962  0.76478895    -0.01700
C1784       C  0.13990614  0.39687320  0.73304714     0.03300
C1785       C  0.08354774  0.33546546  0.71691396     0.38000
C1786       C  0.16030088  0.41689362  0.78079835     0.38000
C1787       C  0.15767380  0.41899043  0.71693798     0.36400
C1788       C  0.08306401  0.33597061  0.78076926     0.36400
N1789       N  0.17169637  0.43674756  0.70410836    -0.38400
N1790       N  0.06709085  0.31985759  0.79349731    -0.38400
N1791       N  0.17621356  0.43309894  0.79357538    -0.37900
N1792       N  0.06817318  0.31887920  0.70397227    -0.37900
C1793       C  0.12575018  0.46901775  0.62648777    -0.04500
C1794       C  0.14256267  0.48515397  0.60488082    -0.01700
C1795       C  0.14388300  0.51684921  0.60616400     0.03300
C1796       C  0.12847020  0.53262044  0.62906013    -0.04500
C1797       C  0.11256800  0.51643660  0.65126233    -0.01700
C1798       C  0.11118626  0.48476854  0.64994794     0.03300
C1799       C  0.15775822  0.46923378  0.58078339     0.38000
C1800       C  0.09871097  0.53232934  0.67618220     0.38000
C1801       C  0.09579404  0.46830256  0.67353084     0.36400
C1802       C  0.16037491  0.53327634  0.58330175     0.36400
N1803       N  0.08368497  0.45512384  0.69236122    -0.38400
N1804       N  0.17352050  0.54641482  0.56514333    -0.38400
N1805       N  0.08785819  0.54507113  0.69615571    -0.37900
N1806       N  0.16991846  0.45651438  0.56156303    -0.37900
C1807       C  0.12322769  0.37611872  0.28185088    -0.04500
C1808       C  0.13580326  0.40063952  0.26631117    -0.01700
C1809       C  0.13636904  0.40078006  0.23459702     0.03300
C1810       C  0.12602776  0.37537798  0.21804798    -0.04500
C1811       C  0.11332998  0.35080473  0.23403768    -0.01700
C1812       C  0.11178836  0.35136829  0.26569397     0.03300
C1813       C  0.14783025  0.42603827  0.28305427     0.38000
C1814       C  0.10050293  0.32526595  0.21818196     0.38000
C1815       C  0.09893401  0.32605819  0.28177567     0.36400
C1816       C  0.14697239  0.42761659  0.21947171     0.36400
N1817       N  0.08868398  0.30588697  0.29457684    -0.38400
N1818       N  0.15478763  0.44950072  0.20782300    -0.38400
N1819       N  0.09024028  0.30485434  0.20564744    -0.37900
N1820       N  0.15759809  0.44618229  0.29639173    -0.37900
C1821       C  0.12265383  0.46959234  0.37424246    -0.04500
C1822       C  0.10723421  0.48626508  0.35204488    -0.01700
C1823       C  0.10868211  0.51806145  0.35200675     0.03300
C1824       C  0.12551580  0.53351956  0.37418514    -0.04500
C1825       C  0.14099058  0.51682176  0.39626708    -0.01700
C1826       C  0.13941727  0.48509473  0.39640595     0.03300
C1827       C  0.09049633  0.47070264  0.32870800     0.38000
C1828       C  0.15764009  0.53235180  0.41967971     0.38000
C1829       C  0.15384302  0.46845836  0.42037894     0.36400
C1830       C  0.09367241  0.53481726  0.32847475     0.36400
N1831       N  0.16515279  0.45515949  0.43959144    -0.38400
N1832       N  0.08179249  0.54814091  0.30961948    -0.38400
N1833       N  0.17088541  0.54482893  0.43831269    -0.37900
N1834       N  0.07717420  0.45825557  0.31010172    -0.37900
C1835       C  0.11753289  0.37581100  0.46715578    -0.04500
C1836       C  0.13675609  0.35610458  0.48300528    -0.01700
C1837       C  0.13774128  0.35671250  0.51470148     0.03300
C1838       C  0.11892859  0.37648242  0.53109426    -0.04500
C1839       C  0.09925651  0.39580559  0.51525458    -0.01700
C1840       C  0.09874542  0.39562927  0.48349374     0.03300
C1841       C  0.15483327  0.33426438  0.46677737     0.38000
C1842       C  0.08028209  0.41682855  0.53151358     0.38000
C1843       C  0.07972926  0.41684178  0.46769584     0.36400
C1844       C  0.15768632  0.33625784  0.53036857     0.36400
N1845       N  0.06462294  0.43381375  0.45512381    -0.38400
N1846       N  0.17371222  0.32005627  0.54281995    -0.38400
N1847       N  0.06509945  0.43357429  0.54444565    -0.37900
N1848       N  0.16916227  0.31678235  0.45384745    -0.37900
C1849       C  0.77759406  0.87722630  0.37279974    -0.04500
C1850       C  0.76065507  0.86031141  0.39380297    -0.01700
C1851       C  0.72892242  0.86120361  0.39348530     0.03300
C1852       C  0.71358517  0.87848991  0.37182773    -0.04500
C1853       C  0.73031329  0.89586036  0.35119144    -0.01700
C1854       C  0.76211951  0.89549978  0.35186305     0.03300
C1855       C  0.77557996  0.84144566  0.41566780     0.38000
C1856       C  0.71482606  0.91366536  0.32876678     0.38000
C1857       C  0.77879757  0.91499115  0.33173755     0.36400
C1858       C  0.71201776  0.84513105  0.41632119     0.36400
N1859       N  0.79210274  0.93066499  0.31581613    -0.38400
N1860       N  0.69852360  0.83251071  0.43461860    -0.38400
N1861       N  0.70246676  0.92784848  0.31087511    -0.37900
N1862       N  0.78704131  0.82638623  0.43340537    -0.37900
C1863       C  0.87143074  0.78187574  0.37369442    -0.04500
C1864       C  0.88329408  0.76569812  0.34867617    -0.01700
C1865       C  0.88620986  0.73411896  0.34977672     0.03300
C1866       C  0.87366782  0.71786939  0.37382843    -0.04500
C1867       C  0.86058091  0.73346379  0.39810197    -0.01700
C1868       C  0.86075142  0.76520183  0.39879036     0.03300
C1869       C  0.89231618  0.78096430  0.32135331     0.38000
C1870       C  0.84772457  0.71669086  0.42296848     0.38000
C1871       C  0.84994132  0.78015072  0.42569341     0.36400
C1872       C  0.90217034  0.71835480  0.32601001     0.36400
N1873       N  0.84187385  0.79155565  0.44765806    -0.38400
N1874       N  0.91524389  0.70594036  0.30721733    -0.38400
N1875       N  0.83737252  0.70319395  0.44262198    -0.37900
N1876       N  0.89914930  0.79279804  0.29924546    -0.37900
C1877       C  0.87063962  0.28163418  0.37821688    -0.04500
C1878       C  0.89154865  0.26558992  0.39603834    -0.01700
C1879       C  0.89101157  0.23385486  0.39664317     0.03300
C1880       C  0.86971622  0.21778711  0.37934975    -0.04500
C1881       C  0.84868948  0.23370489  0.36175981    -0.01700
C1882       C  0.84898994  0.26540571  0.36131707     0.03300
C1883       C  0.91332974  0.28155898  0.41440117     0.38000
C1884       C  0.82629015  0.21744218  0.34437257     0.38000
C1885       C  0.82730825  0.28112957  0.34275508     0.36400
C1886       C  0.91312872  0.21774199  0.41434123     0.36400
N1887       N  0.80989961  0.29362346  0.32807237    -0.38400
N1888       N  0.93079782  0.20495003  0.42844584    -0.38400
N1889       N  0.80851059  0.20444639  0.33045568    -0.37900
N1890       N  0.93083735  0.29409509  0.42905136    -0.37900
C1891       C  0.77680856  0.12540333  0.37649568    -0.04500
C1892       C  0.76059803  0.10964775  0.35398817    -0.01700
C1893       C  0.72884801  0.11049511  0.35349254     0.03300
C1894       C  0.71283002  0.12611659  0.37605512    -0.04500
C1895       C  0.72887659  0.14174238  0.39857104    -0.01700
C1896       C  0.76064817  0.14173174  0.39862406     0.03300
C1897       C  0.77636675  0.09154843  0.33184894     0.38000
C1898       C  0.71284501  0.15711780  0.42241766     0.38000
C1899       C  0.77653799  0.15919969  0.42123066     0.36400
C1900       C  0.71262543  0.09601376  0.32910333     0.36400
N1901       N  0.78914851  0.17312262  0.43928293    -0.38400
N1902       N  0.69966688  0.08470322  0.30954918    -0.38400
N1903       N  0.70065455  0.16939830  0.44183907    -0.37900
N1904       N  0.78891743  0.07701449  0.31425808    -0.37900
C1905       C  0.87036077  0.03218703  0.37502340    -0.04500
C1906       C  0.84831784  0.01570315  0.39093747    -0.01700
C1907       C  0.84830028  0.98397865  0.38993156     0.03300
C1908       C  0.87049597  0.96838898  0.37333706    -0.04500
C1909       C  0.89225006  0.98487842  0.35700651    -0.01700
C1910       C  0.89226278  0.01662869  0.35801029     0.03300
C1911       C  0.82505237  0.03138690  0.40758814     0.38000
C1912       C  0.91510482  0.96922066  0.33978558     0.38000
C1913       C  0.91571518  0.03326885  0.34251410     0.36400
C1914       C  0.82443501  0.96738413  0.40485057     0.36400
N1915       N  0.93443748  0.04656095  0.33031832    -0.38400
N1916       N  0.80534587  0.95412308  0.41650255    -0.38400
N1917       N  0.93329609  0.95670718  0.32593277    -0.37900
N1918       N  0.80648880  0.04395538  0.42088393    -0.37900
C1919       C  0.12395011  0.78326038  0.38336750    -0.04500
C1920       C  0.10830618  0.76671018  0.40567232    -0.01700
C1921       C  0.11069095  0.73503925  0.40678677     0.03300
C1922       C  0.12741189  0.71937538  0.38477165    -0.04500
C1923       C  0.14313234  0.73575106  0.36261838    -0.01700
C1924       C  0.14204063  0.76747216  0.36234849     0.03300
C1925       C  0.08876643  0.78196829  0.42691769     0.38000
C1926       C  0.15960491  0.71989239  0.33928414     0.38000
C1927       C  0.16043093  0.78372161  0.34087232     0.36400
C1928       C  0.09672886  0.71861280  0.43124712     0.36400
N1929       N  0.17526026  0.79659740  0.32382369    -0.38400
N1930       N  0.08591904  0.70555132  0.45095111    -0.38400
N1931       N  0.17254787  0.70713745  0.32063241    -0.37900
N1932       N  0.07304669  0.79407796  0.44378245    -0.37900
C1933       C  0.21362670  0.87600809  0.38066627    -0.04500
C1934       C  0.22922691  0.85495037  0.39849200    -0.01700
C1935       C  0.26100263  0.85411736  0.39826005     0.03300
C1936       C  0.27759095  0.87351631  0.37924264    -0.04500
C1937       C  0.26184040  0.89425286  0.36100603    -0.01700
C1938       C  0.23010951  0.89576966  0.36206190     0.03300
C1939       C  0.21256209  0.83319840  0.41620301     0.38000
C1940       C  0.27811726  0.91358107  0.34039708     0.38000
C1941       C  0.21444719  0.91824885  0.34444993     0.36400
C1942       C  0.27647433  0.83396208  0.41856414     0.36400
N1943       N  0.20190059  0.93620115  0.33050386    -0.38400
N1944       N  0.28858130  0.81793285  0.43499290    -0.38400
N1945       N  0.29104927  0.92896430  0.32390129    -0.37900
N1946       N  0.19924038  0.81571302  0.43009921    -0.37900
C1947       C  0.96395808  0.87555136  0.37574301    -0.04500
C1948       C  0.97930698  0.89895619  0.39092381    -0.01700
C1949       C  0.01108009  0.89916854  0.39215549     0.03300
C1950       C  0.02776166  0.87597072  0.37822726    -0.04500
C1951       C  0.01244599  0.85282368  0.36271488    -0.01700
C1952       C  0.98071688  0.85243580  0.36179119     0.03300
C1953       C  0.96240366  0.92334201  0.40454023     0.38000
C1954       C  0.02934024  0.82890197  0.34822532     0.38000
C1955       C  0.96550829  0.82725406  0.34778144     0.36400
C1956       C  0.02663040  0.92405072  0.40651037     0.36400
N1957       N  0.95410678  0.80663067  0.33675192    -0.38400
N1958       N  0.03903821  0.94400352  0.41777448    -0.38400
N1959       N  0.04281899  0.80991840  0.33656921    -0.37900
N1960       N  0.94881938  0.94274815  0.41534032    -0.37900
C1961       C  0.21162997  0.12482940  0.36966590    -0.04500
C1962       C  0.22799990  0.15077861  0.37748788    -0.01700
C1963       C  0.25979706  0.15027045  0.37821315     0.03300
C1964       C  0.27590847  0.12337904  0.37134921    -0.04500
C1965       C  0.25895556  0.09740155  0.36297007    -0.01700
C1966       C  0.22713643  0.09837263  0.36182636     0.03300
C1967       C  0.21193521  0.17842431  0.38416630     0.38000
C1968       C  0.27372979  0.06937174  0.35521286     0.38000
C1969       C  0.21020295  0.07190962  0.35275829     0.36400
C1970       C  0.27538310  0.17778212  0.38639527     0.36400
N1971       N  0.19676579  0.05085582  0.34533708    -0.38400
N1972       N  0.28748892  0.19996555  0.39273109    -0.38400
N1973       N  0.28514679  0.04677138  0.34920152    -0.37900
N1974       N  0.19913475  0.20046471  0.38938262    -0.37900
C1975       C  0.11720596  0.21918783  0.37059656    -0.04500
C1976       C  0.13589717  0.23575695  0.35095937    -0.01700
C1977       C  0.13546563  0.26752742  0.35142559     0.03300
C1978       C  0.11659592  0.28319091  0.37175617    -0.04500
C1979       C  0.09680776  0.26660107  0.39034694    -0.01700
C1980       C  0.09703822  0.23481782  0.38967045     0.03300
C1981       C  0.15612209  0.22020102  0.33059861     0.38000
C1982       C  0.07640984  0.28209493  0.41059191     0.38000
C1983       C  0.07559759  0.21819421  0.40783369     0.36400
C1984       C  0.15353979  0.28408489  0.32991928     0.36400
N1985       N  0.05840436  0.20488130  0.42212352    -0.38400
N1986       N  0.16769355  0.29729831  0.31256427    -0.38400
N1987       N  0.05998681  0.29434490  0.42666644    -0.37900
N1988       N  0.17223270  0.20777613  0.31434677    -0.37900
C1989       C  0.02620156  0.12743800  0.37762004    -0.04500
C1990       C  0.00978311  0.14968102  0.36210610    -0.01700
C1991       C  0.97805398  0.14934021  0.36265818     0.03300
C1992       C  0.96255149  0.12672578  0.37868444    -0.04500
C1993       C  0.97898627  0.10502724  0.39492584    -0.01700
C1994       C  0.01070743  0.10542976  0.39444811     0.03300
C1995       C  0.02552771  0.17366669  0.34659136     0.38000
C1996       C  0.96329009  0.08159957  0.41130004     0.38000
C1997       C  0.02739669  0.08257495  0.41056158     0.36400
C1998       C  0.96135007  0.17297328  0.34768819     0.36400
N1999       N  0.04077060  0.06442446  0.42343812    -0.38400
N2000       N  0.94794182  0.19183602  0.33590649    -0.38400
N2001       N  0.95074053  0.06293243  0.42435028    -0.37900
N2002       N  0.03804932  0.19290905  0.33436819    -0.37900
C2003       C  0.11905616  0.96933482  0.37829862    -0.04500
C2004       C  0.14054112  0.98617550  0.39464684    -0.01700
C2005       C  0.14003456  0.01790040  0.39395049     0.03300
C2006       C  0.11789574  0.03315831  0.37705496    -0.04500
C2007       C  0.09576177  0.01629934  0.36155387    -0.01700
C2008       C  0.09648752  0.98453633  0.36197908     0.03300
C2009       C  0.16374502  0.97086663  0.41164043     0.38000
C2010       C  0.07122798  0.03159345  0.34653404     0.38000
C2011       C  0.07317880  0.96747696  0.34669577     0.36400
C2012       C  0.16289120  0.03479378  0.41006879     0.36400
N2013       N  0.05457370  0.95378953  0.33463835    -0.38400
N2014       N  0.18110951  0.04829299  0.42289867    -0.38400
N2015       N  0.05147758  0.04375645  0.33481765    -0.37900
N2016       N  0.18219289  0.95865514  0.42525938    -0.37900
loop_ 
_geom_bond_atom_site_label_1 
_geom_bond_atom_site_label_2 
_geom_bond_distance 
_geom_bond_site_symmetry_2 
_ccdc_geom_bond_type 
O1           Cu9   2.020       .  S
O1           C11   1.278       .  A
O2           Cu9   2.009       .  S
O2           C12   1.278       .  A
O3           Cu9   2.021       .  S
O3           C13   1.279       .  A
O4           Cu9   2.019       .  S
O4           C14   1.279       .  A
O5          Cu10   2.012       .  S
O5           C14   1.278       .  A
O6          Cu10   2.011       .  S
O6           C13   1.278       .  A
O7          Cu10   2.006       .  S
O7           C12   1.277       .  A
O8          Cu10   2.012       .  S
O8           C11   1.278       .  A
Cu9         Cu10   2.373       .  S
C11        C1961   1.485       .  S
C12        C1989   1.482       .  S
C13        C1975   1.493       .  S
C14        C2006   1.490       .  S
O15         Cu23   2.019       .  S
O15          C25   1.280       .  A
O16         Cu23   2.019       .  S
O16          C26   1.279       .  A
O17         Cu23   2.006       .  S
O17          C27   1.277       .  A
O18         Cu23   2.001       .  S
O18          C28   1.276       .  A
O19         Cu24   2.022       .  S
O19          C28   1.280       .  A
O20         Cu24   2.018       .  S
O20          C27   1.279       .  A
O21         Cu24   2.008       .  S
O21          C26   1.277       .  A
O22         Cu24   2.012       .  S
O22          C25   1.278       .  A
Cu23        Cu24   2.372       .  S
C25        C1919   1.498       .  S
C26        C2003   1.488       .  S
C27        C1933   1.489       .  S
C28        C1950   1.486       .  S
O29         Cu37   2.012       .  S
O29          C39   1.278       .  A
O30         Cu37   2.002       .  S
O30          C40   1.277       .  A
O31         Cu37   2.005       .  S
O31          C41   1.278       .  A
O32         Cu37   2.009       .  S
O32          C42   1.278       .  A
O33         Cu38   2.008       .  S
O33          C42   1.278       .  A
O34         Cu38   2.006       .  S
O34          C41   1.277       .  A
O35         Cu38   2.015       .  S
O35          C40   1.279       .  A
O36         Cu38   2.013       .  S
O36          C39   1.278       .  A
Cu37        Cu38   2.373       .  S
C39        C1905   1.488       .  S
C40        C1880   1.486       .  S
C41        C1992   1.482       .  S
C42        C1891   1.494       .  S
O43         Cu51   2.018       .  S
O43          C53   1.279       .  A
O44         Cu51   2.012       .  S
O44          C54   1.279       .  A
O45         Cu51   2.011       .  S
O45          C55   1.278       .  A
O46         Cu51   2.009       .  S
O46          C56   1.277       .  A
O47         Cu52   2.023       .  S
O47          C56   1.279       .  A
O48         Cu52   2.019       .  S
O48          C55   1.279       .  A
O49         Cu52   2.014       .  S
O49          C54   1.278       .  A
O50         Cu52   2.009       .  S
O50          C53   1.277       .  A
Cu51        Cu52   2.367       .  S
C53        C1863   1.507       .  S
C54        C1908   1.488       .  S
C55        C1849   1.497       .  S
C56        C1947   1.488       .  S
O57         Cu65   2.021       .  S
O57          C67   1.279       .  A
O58         Cu65   2.017       .  S
O58          C68   1.278       .  A
O59         Cu65   2.021       .  S
O59          C69   1.280       .  A
O60         Cu65   2.012       .  S
O60          C70   1.278       .  A
O61         Cu66   2.001       .  S
O61          C70   1.276       .  A
O62         Cu66   2.003       .  S
O62          C69   1.277       .  A
O63         Cu66   2.021       .  S
O63          C68   1.280       .  A
O64         Cu66   2.017       .  S
O64          C67   1.279       .  A
Cu65        Cu66   2.372       .  S
C67        C1821   1.493       .  S
C68        C1978   1.495       .  S
C69        C1835   1.492       .  S
C70        C1807   1.479       .  S
O71         Cu79   2.010       .  S
O71          C81   1.278       .  A
O72         Cu79   2.004       .  S
O72          C82   1.276       .  A
O73         Cu79   2.018       .  S
O73          C83   1.279       .  A
O74         Cu79   2.016       .  S
O74          C84   1.279       .  A
O75         Cu80   2.009       .  S
O75          C84   1.278       .  A
O76         Cu80   2.007       .  S
O76          C83   1.277       .  A
O77         Cu80   2.018       .  S
O77          C82   1.280       .  A
O78         Cu80   2.023       .  S
O78          C81   1.279       .  A
Cu79        Cu80   2.372       .  S
C81        C1765   1.491       .  S
C82        C1793   1.485       .  S
C83        C1779   1.489       .  S
C84        C1838   1.494       .  S
O85         Cu93   2.010       .  S
O85          C95   1.277       .  A
O86         Cu93   2.009       .  S
O86          C96   1.278       .  A
O87         Cu93   2.016       .  S
O87          C97   1.279       .  A
O88         Cu93   2.024       .  S
O88          C98   1.280       .  A
O89         Cu94   2.016       .  S
O89          C98   1.278       .  A
O90         Cu94   2.013       .  S
O90          C97   1.278       .  A
O91         Cu94   2.031       .  S
O91          C96   1.281       .  A
O92         Cu94   2.030       .  S
O92          C95   1.281       .  A
Cu93        Cu94   2.371       .  S
C95        C1751   1.492       .  S
C96        C1737   1.499       .  S
C97        C1922   1.488       .  S
C98        C1824   1.492       .  S
O99        Cu107   2.018       .  S
O99         C109   1.278       .  A
O100       Cu107   2.019       .  S
O100        C110   1.279       .  A
O101       Cu107   2.018       .  S
O101        C111   1.279       .  A
O102       Cu107   2.008       .  S
O102        C112   1.278       .  A
O103       Cu108   2.012       .  S
O103        C112   1.278       .  A
O104       Cu108   2.010       .  S
O104        C111   1.278       .  A
O105       Cu108   2.018       .  S
O105        C110   1.279       .  A
O106       Cu108   2.022       .  S
O106        C109   1.279       .  A
Cu107      Cu108   2.365       .  S
C109       C1754   1.493       .  S
C110       C1709   1.501       .  S
C111       C1723   1.511       .  S
C112       C1796   1.484       .  S
O113       Cu121   2.009       .  S
O113        C123   1.278       .  A
O114       Cu121   1.998       .  S
O114        C124   1.276       .  A
O115       Cu121   2.009       .  S
O115        C125   1.278       .  A
O116       Cu121   2.026       .  S
O116        C126   1.279       .  A
O117       Cu122   2.013       .  S
O117        C126   1.278       .  A
O118       Cu122   2.021       .  S
O118        C125   1.279       .  A
O119       Cu122   2.009       .  S
O119        C124   1.279       .  A
O120       Cu122   2.003       .  S
O120        C123   1.277       .  A
Cu121      Cu122   2.367       .  S
C123       C1695   1.503       .  S
C124       C1667   1.497       .  S
C125       C1894   1.487       .  S
C126       C1681   1.488       .  S
O127       Cu135   2.006       .  S
O127        C137   1.277       .  A
O128       Cu135   2.013       .  S
O128        C138   1.279       .  A
O129       Cu135   2.008       .  S
O129        C139   1.277       .  A
O130       Cu135   2.019       .  S
O130        C140   1.278       .  A
O131       Cu136   2.015       .  S
O131        C140   1.278       .  A
O132       Cu136   2.026       .  S
O132        C139   1.280       .  A
O133       Cu136   1.997       .  S
O133        C138   1.276       .  A
O134       Cu136   2.003       .  S
O134        C137   1.278       .  A
Cu135      Cu136   2.366       .  S
C137       C1639   1.501       .  S
C138       C1698   1.504       .  S
C139       C1628   1.491       .  S
C140       C1653   1.485       .  S
O141       Cu149   2.011       .  S
O141        C151   1.278       .  A
O142       Cu149   2.007       .  S
O142        C152   1.278       .  A
O143       Cu149   2.014       .  S
O143        C153   1.278       .  A
O144       Cu149   2.013       .  S
O144        C154   1.278       .  A
O145       Cu150   2.017       .  S
O145        C154   1.278       .  A
O146       Cu150   2.025       .  S
O146        C153   1.280       .  A
O147       Cu150   2.015       .  S
O147        C152   1.279       .  A
O148       Cu150   2.020       .  S
O148        C151   1.279       .  A
Cu149      Cu150   2.365       .  S
C151       C1611   1.494       .  S
C152       C1600   1.495       .  S
C153       C1964   1.515       .  S
C154       C1684   1.486       .  S
O155       Cu163   2.013       .  S
O155        C165   1.278       .  A
O156       Cu163   2.014       .  S
O156        C166   1.278       .  A
O157       Cu163   2.014       .  S
O157        C167   1.279       .  A
O158       Cu163   2.016       .  S
O158        C168   1.279       .  A
O159       Cu164   2.015       .  S
O159        C168   1.279       .  A
O160       Cu164   2.014       .  S
O160        C167   1.278       .  A
O161       Cu164   2.018       .  S
O161        C166   1.278       .  A
O162       Cu164   2.016       .  S
O162        C165   1.278       .  A
Cu163      Cu164   2.373       .  S
C165       C1583   1.485       .  S
C166       C1656   1.485       .  S
C167       C1614   1.492       .  S
C168       C1569   1.492       .  S
O169       Cu177   2.016       .  S
O169        C179   1.279       .  A
O170       Cu177   2.020       .  S
O170        C180   1.279       .  A
O171       Cu177   2.010       .  S
O171        C181   1.277       .  A
O172       Cu177   1.997       .  S
O172        C182   1.276       .  A
O173       Cu178   2.013       .  S
O173        C182   1.279       .  A
O174       Cu178   2.006       .  S
O174        C181   1.278       .  A
O175       Cu178   2.006       .  S
O175        C180   1.276       .  A
O176       Cu178   2.011       .  S
O176        C179   1.277       .  A
Cu177      Cu178   2.366       .  S
C179       C1558   1.512       .  S
C180       C1527   1.482       .  S
C181       C1866   1.482       .  S
C182       C1541   1.501       .  S
O183       Cu191   2.006       .  S
O183        C193   1.277       .  A
O184       Cu191   2.013       .  S
O184        C194   1.278       .  A
O185       Cu191   2.013       .  S
O185        C195   1.279       .  A
O186       Cu191   2.012       .  S
O186        C196   1.278       .  A
O187       Cu192   2.014       .  S
O187        C196   1.279       .  A
O188       Cu192   2.003       .  S
O188        C195   1.277       .  A
O189       Cu192   2.023       .  S
O189        C194   1.279       .  A
O190       Cu192   2.026       .  S
O190        C193   1.280       .  A
Cu191      Cu192   2.364       .  S
C193       C1488   1.506       .  S
C194       C1513   1.488       .  S
C195       C1499   1.488       .  S
C196       C1555   1.513       .  S
O197       Cu205   2.008       .  S
O197        C207   1.278       .  A
O198       Cu205   2.002       .  S
O198        C208   1.277       .  A
O199       Cu205   2.021       .  S
O199        C209   1.279       .  A
O200       Cu205   2.021       .  S
O200        C210   1.280       .  A
O201       Cu206   2.013       .  S
O201        C210   1.278       .  A
O202       Cu206   2.001       .  S
O202        C209   1.276       .  A
O203       Cu206   2.012       .  S
O203        C208   1.278       .  A
O204       Cu206   2.002       .  S
O204        C207   1.277       .  A
Cu205      Cu206   2.360       .  S
C207       C1544   1.501       .  S
C208       C1877   1.493       .  S
C209       C1471   1.514       .  S
C210       C1457   1.500       .  S
O211       Cu219   2.010       .  S
O211        C221   1.277       .  A
O212       Cu219   2.007       .  S
O212        C222   1.278       .  A
O213       Cu219   2.025       .  S
O213        C223   1.280       .  A
O214       Cu219   2.019       .  S
O214        C224   1.279       .  A
O215       Cu220   2.012       .  S
O215        C224   1.278       .  A
O216       Cu220   2.006       .  S
O216        C223   1.276       .  A
O217       Cu220   2.002       .  S
O217        C222   1.277       .  A
O218       Cu220   2.009       .  S
O218        C221   1.278       .  A
Cu219      Cu220   2.366       .  S
C221       C1474   1.513       .  S
C222       C1429   1.487       .  S
C223       C1516   1.486       .  S
C224       C1443   1.495       .  S
O225       Cu233   2.019       .  S
O225        C235   1.279       .  A
O226       Cu233   2.024       .  S
O226        C236   1.280       .  A
O227       Cu233   2.010       .  S
O227        C237   1.278       .  A
O228       Cu233   2.011       .  S
O228        C238   1.277       .  A
O229       Cu234   2.011       .  S
O229        C238   1.279       .  A
O230       Cu234   2.017       .  S
O230        C237   1.278       .  A
O231       Cu234   2.008       .  S
O231        C236   1.277       .  A
O232       Cu234   2.008       .  S
O232        C235   1.277       .  A
Cu233      Cu234   2.365       .  S
C235       C1401   1.490       .  S
C236       C1936   1.495       .  S
C237       C1387   1.485       .  S
C238       C1415   1.512       .  S
O239       Cu247   2.019       .  S
O239        C249   1.280       .  A
O240       Cu247   2.011       .  S
O240        C250   1.278       .  A
O241       Cu247   2.006       .  S
O241        C251   1.277       .  A
O242       Cu247   2.012       .  S
O242        C252   1.277       .  A
O243       Cu248   2.006       .  S
O243        C252   1.277       .  A
O244       Cu248   2.004       .  S
O244        C251   1.277       .  A
O245       Cu248   1.999       .  S
O245        C250   1.277       .  A
O246       Cu248   1.995       .  S
O246        C249   1.275       .  A
Cu247      Cu248   2.363       .  S
C249       C1418   1.512       .  S
C250       C1362   1.502       .  S
C251       C1345   1.482       .  S
C252       C1373   1.483       .  S
O253       Cu261   2.011       .  S
O253        C263   1.279       .  A
O254       Cu261   2.002       .  S
O254        C264   1.276       .  A
O255       Cu261   2.024       .  S
O255        C265   1.279       .  A
O256       Cu261   2.015       .  S
O256        C266   1.279       .  A
O257       Cu262   2.012       .  S
O257        C266   1.279       .  A
O258       Cu262   2.011       .  S
O258        C265   1.278       .  A
O259       Cu262   2.011       .  S
O259        C264   1.278       .  A
O260       Cu262   2.014       .  S
O260        C263   1.278       .  A
Cu261      Cu262   2.372       .  S
C263       C1320   1.494       .  S
C264       C1376   1.480       .  S
C265       C1334   1.489       .  S
C266       C1303   1.495       .  S
O267       Cu275   2.016       .  S
O267        C277   1.278       .  A
O268       Cu275   2.017       .  S
O268        C278   1.279       .  A
O269       Cu275   2.008       .  S
O269        C279   1.278       .  A
O270       Cu275   2.006       .  S
O270        C280   1.277       .  A
O271       Cu276   2.017       .  S
O271        C280   1.279       .  A
O272       Cu276   2.015       .  S
O272        C279   1.278       .  A
O273       Cu276   2.022       .  S
O273        C278   1.279       .  A
O274       Cu276   2.021       .  S
O274        C277   1.279       .  A
Cu275      Cu276   2.372       .  S
C277       C1331   1.489       .  S
C278       C1289   1.495       .  S
C279       C1852   1.488       .  S
C280       C1404   1.489       .  S
O281       Cu289   2.003       .  S
O281        C291   1.277       .  A
O282       Cu289   2.000       .  S
O282        C292   1.276       .  A
O283       Cu289   2.014       .  S
O283        C293   1.278       .  A
O284       Cu289   2.022       .  S
O284        C294   1.280       .  A
O285       Cu290   2.004       .  S
O285        C294   1.277       .  A
O286       Cu290   2.008       .  S
O286        C293   1.277       .  A
O287       Cu290   2.020       .  S
O287        C292   1.280       .  A
O288       Cu290   2.009       .  S
O288        C291   1.278       .  A
Cu289      Cu290   2.367       .  S
C291       C1348   1.488       .  S
C292       C1261   1.508       .  S
C293       C1726   1.480       .  S
C294       C1275   1.498       .  S
O295       Cu303   2.015       .  S
O295        C305   1.279       .  A
O296       Cu303   2.010       .  S
O296        C306   1.278       .  A
O297       Cu303   2.014       .  S
O297        C307   1.278       .  A
O298       Cu303   2.006       .  S
O298        C308   1.277       .  A
O299       Cu304   2.019       .  S
O299        C308   1.278       .  A
O300       Cu304   2.017       .  S
O300        C307   1.279       .  A
O301       Cu304   2.020       .  S
O301        C306   1.279       .  A
O302       Cu304   2.023       .  S
O302        C305   1.280       .  A
Cu303      Cu304   2.365       .  S
C305       C1768   1.500       .  S
C306       C1278   1.501       .  S
C307       C1586   1.506       .  S
C308       C1247   1.484       .  S
O309       Cu317   2.019       .  S
O309        C319   1.280       .  A
O310       Cu317   2.011       .  S
O310        C320   1.278       .  A
O311       Cu317   2.001       .  S
O311        C321   1.277       .  A
O312       Cu317   2.001       .  S
O312        C322   1.276       .  A
O313       Cu318   2.016       .  S
O313        C322   1.279       .  A
O314       Cu318   2.024       .  S
O314        C321   1.280       .  A
O315       Cu318   2.013       .  S
O315        C320   1.278       .  A
O316       Cu318   2.008       .  S
O316        C319   1.278       .  A
Cu317      Cu318   2.372       .  S
C319       C1446   1.493       .  S
C320       C1236   1.486       .  S
C321       C1625   1.495       .  S
C322       C1250   1.481       .  S
O323       Cu331   2.015       .  S
O323        C333   1.279       .  A
O324       Cu331   2.017       .  S
O324        C334   1.279       .  A
O325       Cu331   2.012       .  S
O325        C335   1.278       .  A
O326       Cu331   2.016       .  S
O326        C336   1.278       .  A
O327       Cu332   2.013       .  S
O327        C336   1.278       .  A
O328       Cu332   2.022       .  S
O328        C335   1.279       .  A
O329       Cu332   2.012       .  S
O329        C334   1.278       .  A
O330       Cu332   2.008       .  S
O330        C333   1.277       .  A
Cu331      Cu332   2.366       .  S
C333       C1264   1.510       .  S
C334       C1317   1.491       .  S
C335       C1485   1.488       .  S
C336       C1233   1.488       .  S
O337       Cu345   2.017       .  S
O337        C347   1.279       .  A
O338       Cu345   2.017       .  S
O338        C348   1.279       .  A
O339       Cu345   2.008       .  S
O339        C349   1.278       .  A
O340       Cu345   2.011       .  S
O340        C350   1.278       .  A
O341       Cu346   2.022       .  S
O341        C350   1.279       .  A
O342       Cu346   2.017       .  S
O342        C349   1.279       .  A
O343       Cu346   2.005       .  S
O343        C348   1.277       .  A
O344       Cu346   2.006       .  S
O344        C347   1.277       .  A
Cu345      Cu346   2.373       .  S
C347       C1194   1.485       .  S
C348       C1205   1.484       .  S
C349       C1597   1.489       .  S
C350       C1222   1.489       .  S
O351       Cu359   2.013       .  S
O351        C361   1.279       .  A
O352       Cu359   2.013       .  S
O352        C362   1.278       .  A
O353       Cu359   2.013       .  S
O353        C363   1.278       .  A
O354       Cu359   2.017       .  S
O354        C364   1.278       .  A
O355       Cu360   2.021       .  S
O355        C364   1.279       .  A
O356       Cu360   2.022       .  S
O356        C363   1.280       .  A
O357       Cu360   2.019       .  S
O357        C362   1.279       .  A
O358       Cu360   2.010       .  S
O358        C361   1.278       .  A
Cu359      Cu360   2.366       .  S
C361       C1177   1.487       .  S
C362       C1163   1.512       .  S
C363       C1572   1.499       .  S
C364       C1219   1.490       .  S
O365       Cu373   1.999       .  S
O365        C375   1.276       .  A
O366       Cu373   2.007       .  S
O366        C376   1.277       .  A
O367       Cu373   2.009       .  S
O367        C377   1.278       .  A
O368       Cu373   2.015       .  S
O368        C378   1.279       .  A
O369       Cu374   2.020       .  S
O369        C378   1.279       .  A
O370       Cu374   2.017       .  S
O370        C377   1.279       .  A
O371       Cu374   2.015       .  S
O371        C376   1.278       .  A
O372       Cu374   2.012       .  S
O372        C375   1.278       .  A
Cu373      Cu374   2.368       .  S
C375       C1359   1.477       .  S
C376       C1149   1.489       .  S
C377       C1180   1.490       .  S
C378       C1135   1.512       .  S
O379       Cu387   2.023       .  S
O379        C389   1.279       .  A
O380       Cu387   2.017       .  S
O380        C390   1.279       .  A
O381       Cu387   2.024       .  S
O381        C391   1.280       .  A
O382       Cu387   2.021       .  S
O382        C392   1.280       .  A
O383       Cu388   2.003       .  S
O383        C392   1.277       .  A
O384       Cu388   2.003       .  S
O384        C391   1.276       .  A
O385       Cu388   2.007       .  S
O385        C390   1.278       .  A
O386       Cu388   2.007       .  S
O386        C389   1.278       .  A
Cu387      Cu388   2.364       .  S
C389       C1390   1.503       .  S
C390       C1152   1.487       .  S
C391       C1208   1.486       .  S
C392       C1121   1.507       .  S
O393       Cu401   2.007       .  S
O393        C403   1.277       .  A
O394       Cu401   2.010       .  S
O394        C404   1.278       .  A
O395       Cu401   2.012       .  S
O395        C405   1.279       .  A
O396       Cu401   2.010       .  S
O396        C406   1.278       .  A
O397       Cu402   2.013       .  S
O397        C406   1.278       .  A
O398       Cu402   2.015       .  S
O398        C405   1.278       .  A
O399       Cu402   2.018       .  S
O399        C404   1.279       .  A
O400       Cu402   2.017       .  S
O400        C403   1.279       .  A
Cu401      Cu402   2.373       .  S
C403       C1107   1.486       .  S
C404       C1460   1.489       .  S
C405       C1093   1.490       .  S
C406       C1079   1.488       .  S
O407       Cu415   2.005       .  S
O407        C417   1.278       .  A
O408       Cu415   2.011       .  S
O408        C418   1.279       .  A
O409       Cu415   2.008       .  S
O409        C419   1.277       .  A
O410       Cu415   2.008       .  S
O410        C420   1.278       .  A
O411       Cu416   2.015       .  S
O411        C420   1.279       .  A
O412       Cu416   2.021       .  S
O412        C419   1.279       .  A
O413       Cu416   2.006       .  S
O413        C418   1.277       .  A
O414       Cu416   2.006       .  S
O414        C417   1.277       .  A
Cu415      Cu416   2.374       .  S
C417       C1432   1.485       .  S
C418       C1110   1.484       .  S
C419       C1065   1.486       .  S
C420       C1051   1.491       .  S
O421       Cu429   2.002       .  S
O421        C431   1.277       .  A
O422       Cu429   2.005       .  S
O422        C432   1.277       .  A
O423       Cu429   2.023       .  S
O423        C433   1.279       .  A
O424       Cu429   2.011       .  S
O424        C434   1.278       .  A
O425       Cu430   2.016       .  S
O425        C434   1.278       .  A
O426       Cu430   2.003       .  S
O426        C433   1.277       .  A
O427       Cu430   2.013       .  S
O427        C432   1.279       .  A
O428       Cu430   2.010       .  S
O428        C431   1.278       .  A
Cu429      Cu430   2.365       .  S
C431       C1037   1.507       .  S
C432       C1810   1.501       .  S
C433       C1023   1.488       .  S
C434       C1096   1.491       .  S
O435       Cu443   2.014       .  S
O435        C445   1.279       .  A
O436       Cu443   2.003       .  S
O436        C446   1.277       .  A
O437       Cu443   2.015       .  S
O437        C447   1.278       .  A
O438       Cu443   2.004       .  S
O438        C448   1.278       .  A
O439       Cu444   2.022       .  S
O439        C448   1.279       .  A
O440       Cu444   2.015       .  S
O440        C447   1.278       .  A
O441       Cu444   2.013       .  S
O441        C446   1.278       .  A
O442       Cu444   2.011       .  S
O442        C445   1.278       .  A
Cu443      Cu444   2.366       .  S
C445       C1782   1.492       .  S
C446       C1040   1.509       .  S
C447       C1068   1.487       .  S
C448       C1009   1.497       .  S
O449       Cu457   2.024       .  S
O449        C459   1.280       .  A
O450       Cu457   2.024       .  S
O450        C460   1.279       .  A
O451       Cu457   2.024       .  S
O451        C461   1.279       .  A
O452       Cu457   2.025       .  S
O452        C462   1.280       .  A
O453       Cu458   2.010       .  S
O453        C462   1.278       .  A
O454       Cu458   2.013       .  S
O454        C461   1.278       .  A
O455       Cu458   2.004       .  S
O455        C460   1.277       .  A
O456       Cu458   2.016       .  S
O456        C459   1.279       .  A
Cu457      Cu458   2.370       .  S
C459        C967   1.498       .  S
C460        C981   1.488       .  S
C461        C995   1.489       .  S
C462       C1292   1.498       .  S
O463       Cu471   2.012       .  S
O463        C473   1.278       .  A
O464       Cu471   2.006       .  S
O464        C474   1.276       .  A
O465       Cu471   2.019       .  S
O465        C475   1.279       .  A
O466       Cu471   2.008       .  S
O466        C476   1.278       .  A
O467       Cu472   1.994       .  S
O467        C476   1.276       .  A
O468       Cu472   1.996       .  S
O468        C475   1.276       .  A
O469       Cu472   2.028       .  S
O469        C474   1.280       .  A
O470       Cu472   2.019       .  S
O470        C473   1.279       .  A
Cu471      Cu472   2.366       .  S
C473       C1306   1.492       .  S
C474        C998   1.488       .  S
C475        C953   1.511       .  S
C476        C939   1.483       .  S
O477       Cu485   2.009       .  S
O477        C487   1.278       .  A
O478       Cu485   2.013       .  S
O478        C488   1.278       .  A
O479       Cu485   2.010       .  S
O479        C489   1.278       .  A
O480       Cu485   2.015       .  S
O480        C490   1.278       .  A
O481       Cu486   1.996       .  S
O481        C490   1.276       .  A
O482       Cu486   2.008       .  S
O482        C489   1.277       .  A
O483       Cu486   2.003       .  S
O483        C488   1.277       .  A
O484       Cu486   2.005       .  S
O484        C487   1.277       .  A
Cu485      Cu486   2.361       .  S
C487        C914   1.487       .  S
C488        C956   1.510       .  S
C489        C925   1.513       .  S
C490       C1642   1.477       .  S
O491       Cu499   2.016       .  S
O491        C501   1.279       .  A
O492       Cu499   2.017       .  S
O492        C502   1.279       .  A
O493       Cu499   2.000       .  S
O493        C503   1.276       .  A
O494       Cu499   2.003       .  S
O494        C504   1.277       .  A
O495       Cu500   2.014       .  S
O495        C504   1.279       .  A
O496       Cu500   2.009       .  S
O496        C503   1.278       .  A
O497       Cu500   2.007       .  S
O497        C502   1.277       .  A
O498       Cu500   2.011       .  S
O498        C501   1.278       .  A
Cu499      Cu500   2.367       .  S
C501        C984   1.490       .  S
C502        C897   1.490       .  S
C503       C1670   1.477       .  S
C504        C928   1.512       .  S
O505       Cu513   2.016       .  S
O505        C515   1.278       .  A
O506       Cu513   2.009       .  S
O506        C516   1.278       .  A
O507       Cu513   2.011       .  S
O507        C517   1.278       .  A
O508       Cu513   2.014       .  S
O508        C518   1.279       .  A
O509       Cu514   2.024       .  S
O509        C518   1.279       .  A
O510       Cu514   2.016       .  S
O510        C517   1.279       .  A
O511       Cu514   2.018       .  S
O511        C516   1.279       .  A
O512       Cu514   2.019       .  S
O512        C515   1.279       .  A
Cu513      Cu514   2.371       .  S
C515        C855   1.493       .  S
C516        C872   1.490       .  S
C517        C883   1.489       .  S
C518       C1740   1.495       .  S
O519       Cu527   2.011       .  S
O519        C529   1.278       .  A
O520       Cu527   2.018       .  S
O520        C530   1.279       .  A
O521       Cu527   2.014       .  S
O521        C531   1.279       .  A
O522       Cu527   2.023       .  S
O522        C532   1.280       .  A
O523       Cu528   2.011       .  S
O523        C532   1.278       .  A
O524       Cu528   2.004       .  S
O524        C531   1.277       .  A
O525       Cu528   2.010       .  S
O525        C530   1.278       .  A
O526       Cu528   2.016       .  S
O526        C529   1.279       .  A
Cu527      Cu528   2.372       .  S
C529       C1712   1.489       .  S
C530        C886   1.488       .  S
C531        C844   1.483       .  S
C532        C827   1.500       .  S
O533       Cu541   2.008       .  S
O533        C543   1.278       .  A
O534       Cu541   2.009       .  S
O534        C544   1.278       .  A
O535       Cu541   2.011       .  S
O535        C545   1.278       .  A
O536       Cu541   2.013       .  S
O536        C546   1.278       .  A
O537       Cu542   2.000       .  S
O537        C546   1.276       .  A
O538       Cu542   2.008       .  S
O538        C545   1.277       .  A
O539       Cu542   2.007       .  S
O539        C544   1.278       .  A
O540       Cu542   2.011       .  S
O540        C543   1.278       .  A
Cu541      Cu542   2.374       .  S
C543        C813   1.483       .  S
C544       C1502   1.489       .  S
C545        C799   1.486       .  S
C546        C841   1.481       .  S
O547       Cu555   2.004       .  S
O547        C557   1.277       .  A
O548       Cu555   2.001       .  S
O548        C558   1.276       .  A
O549       Cu555   2.017       .  S
O549        C559   1.279       .  A
O550       Cu555   2.018       .  S
O550        C560   1.279       .  A
O551       Cu556   2.008       .  S
O551        C560   1.277       .  A
O552       Cu556   2.008       .  S
O552        C559   1.278       .  A
O553       Cu556   2.022       .  S
O553        C558   1.280       .  A
O554       Cu556   2.017       .  S
O554        C557   1.279       .  A
Cu555      Cu556   2.366       .  S
C557        C816   1.484       .  S
C558       C1530   1.510       .  S
C559        C785   1.498       .  S
C560        C869   1.489       .  S
O561       Cu569   2.015       .  S
O561        C571   1.279       .  A
O562       Cu569   2.014       .  S
O562        C572   1.279       .  A
O563       Cu569   2.029       .  S
O563        C573   1.280       .  A
O564       Cu569   2.020       .  S
O564        C574   1.279       .  A
O565       Cu570   2.005       .  S
O565        C574   1.278       .  A
O566       Cu570   2.023       .  S
O566        C573   1.278       .  A
O567       Cu570   2.005       .  S
O567        C572   1.277       .  A
O568       Cu570   2.012       .  S
O568        C571   1.279       .  A
Cu569      Cu570   2.363       .  S
C571       C1191   1.501       .  S
C572        C771   1.506       .  S
C573        C757   1.492       .  S
C574       C1026   1.493       .  S
O575       Cu583   2.014       .  S
O575        C585   1.279       .  A
O576       Cu583   2.010       .  S
O576        C586   1.278       .  A
O577       Cu583   2.013       .  S
O577        C587   1.278       .  A
O578       Cu583   2.023       .  S
O578        C588   1.279       .  A
O579       Cu584   2.017       .  S
O579        C588   1.279       .  A
O580       Cu584   2.014       .  S
O580        C587   1.278       .  A
O581       Cu584   2.008       .  S
O581        C586   1.277       .  A
O582       Cu584   2.006       .  S
O582        C585   1.277       .  A
Cu583      Cu584   2.366       .  S
C585        C774   1.510       .  S
C586       C1124   1.480       .  S
C587        C743   1.489       .  S
C588        C858   1.501       .  S
O589       Cu597   2.015       .  S
O589        C599   1.279       .  A
O590       Cu597   2.013       .  S
O590        C600   1.278       .  A
O591       Cu597   2.006       .  S
O591        C601   1.278       .  A
O592       Cu597   2.006       .  S
O592        C602   1.277       .  A
O593       Cu598   2.012       .  S
O593        C602   1.279       .  A
O594       Cu598   2.015       .  S
O594        C601   1.278       .  A
O595       Cu598   2.021       .  S
O595        C600   1.279       .  A
O596       Cu598   2.023       .  S
O596        C599   1.280       .  A
Cu597      Cu598   2.372       .  S
C599        C970   1.494       .  S
C600        C729   1.493       .  S
C601        C746   1.486       .  S
C602        C788   1.486       .  S
O603       Cu611   2.025       .  S
O603        C613   1.279       .  A
O604       Cu611   2.016       .  S
O604        C614   1.279       .  A
O605       Cu611   2.013       .  S
O605        C615   1.278       .  A
O606       Cu611   2.013       .  S
O606        C616   1.278       .  A
O607       Cu612   2.007       .  S
O607        C616   1.278       .  A
O608       Cu612   2.017       .  S
O608        C615   1.279       .  A
O609       Cu612   2.011       .  S
O609        C614   1.278       .  A
O610       Cu612   2.013       .  S
O610        C613   1.278       .  A
Cu611      Cu612   2.371       .  S
C613        C760   1.488       .  S
C614       C1082   1.495       .  S
C615        C732   1.492       .  S
C616        C900   1.492       .  S
O617       Cu625   2.015       .  S
O617        C627   1.278       .  A
O618       Cu625   2.014       .  S
O618        C628   1.278       .  A
O619       Cu625   2.008       .  S
O619        C629   1.278       .  A
O620       Cu625   2.009       .  S
O620        C630   1.278       .  A
O621       Cu626   2.019       .  S
O621        C630   1.278       .  A
O622       Cu626   2.014       .  S
O622        C629   1.278       .  A
O623       Cu626   2.023       .  S
O623        C628   1.280       .  A
O624       Cu626   2.022       .  S
O624        C627   1.279       .  A
Cu625      Cu626   2.373       .  S
C627        C715   1.490       .  S
C628        C830   1.494       .  S
C629        C701   1.486       .  S
C630       C1138   1.484       .  S
O631       Cu639   1.999       .  S
O631        C641   1.277       .  A
O632       Cu639   1.990       .  S
O632        C642   1.275       .  A
O633       Cu639   2.024       .  S
O633        C643   1.279       .  A
O634       Cu639   2.013       .  S
O634        C644   1.279       .  A
O635       Cu640   2.014       .  S
O635        C644   1.278       .  A
O636       Cu640   2.009       .  S
O636        C643   1.277       .  A
O637       Cu640   2.009       .  S
O637        C642   1.278       .  A
O638       Cu640   2.000       .  S
O638        C641   1.277       .  A
Cu639      Cu640   2.366       .  S
C641        C942   1.481       .  S
C642        C687   1.505       .  S
C643        C718   1.489       .  S
C644        C802   1.499       .  S
O645       Cu653   2.003       .  S
O645        C655   1.277       .  A
O646       Cu653   2.002       .  S
O646        C656   1.277       .  A
O647       Cu653   2.017       .  S
O647        C657   1.279       .  A
O648       Cu653   2.007       .  S
O648        C658   1.278       .  A
O649       Cu654   2.020       .  S
O649        C658   1.279       .  A
O650       Cu654   2.009       .  S
O650        C657   1.278       .  A
O651       Cu654   2.004       .  S
O651        C656   1.277       .  A
O652       Cu654   2.002       .  S
O652        C655   1.277       .  A
Cu653      Cu654   2.366       .  S
C655        C690   1.506       .  S
C656        C911   1.486       .  S
C657       C1054   1.493       .  S
C658        C673   1.494       .  S
O659       Cu667   2.009       .  S
O659        C669   1.278       .  A
O660       Cu667   2.009       .  S
O660        C670   1.278       .  A
O661       Cu667   2.018       .  S
O661        C671   1.279       .  A
O662       Cu667   2.019       .  S
O662        C672   1.279       .  A
O663       Cu668   2.004       .  S
O663        C672   1.277       .  A
O664       Cu668   2.010       .  S
O664        C671   1.277       .  A
O665       Cu668   2.014       .  S
O665        C670   1.279       .  A
O666       Cu668   2.013       .  S
O666        C669   1.279       .  A
Cu667      Cu668   2.373       .  S
C669       C1012   1.489       .  S
C670        C676   1.493       .  S
C671       C1166   1.483       .  S
C672        C704   1.485       .  S
C673        C674   1.415       .  A
C673        C678   1.416       .  A
C674        C675   1.414       .  A
C674        C679   1.450       .  S
C675        C676   1.416       .  A
C675        C682   1.452       .  S
C676        C677   1.415       .  A
C677        C678   1.412       .  A
C677        C680   1.452       .  S
C678        C681   1.452       .  S
C679        N686   1.157       .  T
C680        N685   1.157       .  T
C681        N683   1.157       .  T
C682        N684   1.157       .  T
C687        C688   1.420       .  A
C687        C692   1.422       .  A
C688        C689   1.413       .  A
C688        C693   1.454       .  S
C689        C690   1.422       .  A
C689        C696   1.453       .  S
C690        C691   1.420       .  A
C691        C692   1.411       .  A
C691        C694   1.454       .  S
C692        C695   1.454       .  S
C693        N700   1.158       .  T
C694        N699   1.157       .  T
C695        N697   1.158       .  T
C696        N698   1.158       .  T
C701        C702   1.413       .  A
C701        C706   1.415       .  A
C702        C703   1.410       .  A
C702        C707   1.451       .  S
C703        C704   1.413       .  A
C703        C710   1.452       .  S
C704        C705   1.413       .  A
C705        C706   1.414       .  A
C705        C708   1.451       .  S
C706        C709   1.452       .  S
C707        N714   1.157       .  T
C708        N713   1.157       .  T
C709        N711   1.157       .  T
C710        N712   1.157       .  T
C715        C716   1.415       .  A
C715        C720   1.414       .  A
C716        C717   1.413       .  A
C716        C721   1.451       .  S
C717        C718   1.413       .  A
C717        C724   1.452       .  S
C718        C719   1.413       .  A
C719        C720   1.414       .  A
C719        C722   1.450       .  S
C720        C723   1.451       .  S
C721        N728   1.157       .  T
C722        N727   1.157       .  T
C723        N725   1.157       .  T
C724        N726   1.157       .  T
C729        C730   1.415       .  A
C729        C734   1.415       .  A
C730        C731   1.415       .  A
C730        C735   1.451       .  S
C731        C732   1.416       .  A
C731        C738   1.452       .  S
C732        C733   1.414       .  A
C733        C734   1.413       .  A
C733        C736   1.452       .  S
C734        C737   1.451       .  S
C735        N742   1.158       .  T
C736        N741   1.157       .  T
C737        N739   1.157       .  T
C738        N740   1.157       .  T
C743        C744   1.415       .  A
C743        C748   1.415       .  A
C744        C745   1.411       .  A
C744        C749   1.452       .  S
C745        C746   1.413       .  A
C745        C752   1.452       .  S
C746        C747   1.413       .  A
C747        C748   1.413       .  A
C747        C750   1.452       .  S
C748        C751   1.450       .  S
C749        N756   1.157       .  T
C750        N755   1.157       .  T
C751        N753   1.157       .  T
C752        N754   1.157       .  T
C757        C758   1.415       .  A
C757        C762   1.413       .  A
C758        C759   1.415       .  A
C758        C763   1.449       .  S
C759        C760   1.411       .  A
C759        C766   1.451       .  S
C760        C761   1.413       .  A
C761        C762   1.414       .  A
C761        C764   1.452       .  S
C762        C765   1.448       .  S
C763        N770   1.157       .  T
C764        N769   1.157       .  T
C765        N767   1.156       .  T
C766        N768   1.157       .  T
C771        C772   1.420       .  A
C771        C776   1.419       .  A
C772        C773   1.414       .  A
C772        C777   1.453       .  S
C773        C774   1.423       .  A
C773        C780   1.453       .  S
C774        C775   1.421       .  A
C775        C776   1.414       .  A
C775        C778   1.453       .  S
C776        C779   1.453       .  S
C777        N784   1.158       .  T
C778        N783   1.157       .  T
C779        N781   1.158       .  T
C780        N782   1.158       .  T
C785        C786   1.419       .  A
C785        C790   1.420       .  A
C786        C787   1.414       .  A
C786        C791   1.451       .  S
C787        C788   1.413       .  A
C787        C794   1.452       .  S
C788        C789   1.411       .  A
C789        C790   1.411       .  A
C789        C792   1.453       .  S
C790        C793   1.451       .  S
C791        N798   1.157       .  T
C792        N797   1.157       .  T
C793        N795   1.157       .  T
C794        N796   1.157       .  T
C799        C800   1.411       .  A
C799        C804   1.412       .  A
C800        C801   1.412       .  A
C800        C805   1.452       .  S
C801        C802   1.419       .  A
C801        C808   1.451       .  S
C802        C803   1.420       .  A
C803        C804   1.413       .  A
C803        C806   1.451       .  S
C804        C807   1.452       .  S
C805        N812   1.157       .  T
C806        N811   1.157       .  T
C807        N809   1.157       .  T
C808        N810   1.157       .  T
C813        C814   1.413       .  A
C813        C818   1.412       .  A
C814        C815   1.412   1_556  A
C814        C819   1.452       .  S
C815        C816   1.413       .  A
C815        C822   1.451       .  S
C816        C817   1.414       .  A
C817        C818   1.411   1_554  A
C817        C820   1.452       .  S
C818        C821   1.451       .  S
C819        N826   1.157       .  T
C820        N825   1.157       .  T
C821        N823   1.157       .  T
C822        N824   1.157       .  T
C827        C828   1.419       .  A
C827        C832   1.417       .  A
C828        C829   1.414       .  A
C828        C833   1.452       .  S
C829        C830   1.413       .  A
C829        C836   1.451       .  S
C830        C831   1.415       .  A
C831        C832   1.415       .  A
C831        C834   1.452       .  S
C832        C835   1.451       .  S
C833        N840   1.157       .  T
C834        N839   1.157       .  T
C835        N837   1.158       .  T
C836        N838   1.157       .  T
C841        C842   1.413       .  A
C841        C846   1.412       .  A
C842        C843   1.411   1_655  A
C842        C847   1.452       .  S
C843        C844   1.413       .  A
C843        C850   1.452       .  S
C844        C845   1.413       .  A
C845        C846   1.411   1_455  A
C845        C848   1.451       .  S
C846        C849   1.452       .  S
C847        N854   1.157       .  T
C848        N853   1.157       .  T
C849        N851   1.157       .  T
C850        N852   1.157       .  T
C855        C856   1.413       .  A
C855        C860   1.414       .  A
C856        C857   1.414       .  A
C856        C861   1.452       .  S
C857        C858   1.419       .  A
C857        C864   1.451       .  S
C858        C859   1.418       .  A
C859        C860   1.415       .  A
C859        C862   1.450       .  S
C860        C863   1.452       .  S
C861        N868   1.157       .  T
C862        N867   1.157       .  T
C863        N865   1.158       .  T
C864        N866   1.157       .  T
C869        C870   1.415       .  A
C869        C874   1.413       .  A
C870        C871   1.414   1_655  A
C870        C875   1.452       .  S
C871        C872   1.415       .  A
C871        C878   1.451       .  S
C872        C873   1.413       .  A
C873        C874   1.411   1_455  A
C873        C876   1.452       .  S
C874        C877   1.450       .  S
C875        N882   1.157       .  T
C876        N881   1.157       .  T
C877        N879   1.157       .  T
C878        N880   1.158       .  T
C883        C884   1.414       .  A
C883        C888   1.415       .  A
C884        C885   1.412   1_554  A
C884        C889   1.452       .  S
C885        C886   1.413       .  A
C885        C892   1.451       .  S
C886        C887   1.415       .  A
C887        C888   1.414   1_556  A
C887        C890   1.452       .  S
C888        C891   1.452       .  S
C889        N896   1.157       .  T
C890        N895   1.157       .  T
C891        N893   1.158       .  T
C892        N894   1.157       .  T
C897        C898   1.415       .  A
C897        C902   1.413       .  A
C898        C899   1.413       .  A
C898        C903   1.452       .  S
C899        C900   1.416       .  A
C899        C906   1.452       .  S
C900        C901   1.416       .  A
C901        C902   1.411       .  A
C901        C904   1.452       .  S
C902        C905   1.451       .  S
C903        N910   1.157       .  T
C904        N909   1.157       .  T
C905        N907   1.157       .  T
C906        N908   1.157       .  T
C911        C912   1.414       .  A
C911        C916   1.414       .  A
C912        C913   1.411       .  A
C912        C917   1.452       .  S
C913        C914   1.415       .  A
C913        C920   1.452       .  S
C914        C915   1.415       .  A
C915        C916   1.410       .  A
C915        C918   1.452       .  S
C916        C919   1.453       .  S
C917        N924   1.157       .  T
C918        N923   1.157       .  T
C919        N921   1.157       .  T
C920        N922   1.157       .  T
C925        C926   1.423       .  A
C925        C930   1.423       .  A
C926        C927   1.416   1_556  A
C926        C931   1.453       .  S
C927        C928   1.422       .  A
C927        C934   1.454       .  S
C928        C929   1.423       .  A
C929        C930   1.415   1_554  A
C929        C932   1.454       .  S
C930        C933   1.454       .  S
C931        N938   1.158       .  T
C932        N937   1.158       .  T
C933        N935   1.158       .  T
C934        N936   1.157       .  T
C939        C940   1.415       .  A
C939        C944   1.414       .  A
C940        C941   1.408       .  A
C940        C945   1.452       .  S
C941        C942   1.413       .  A
C941        C948   1.452       .  S
C942        C943   1.414       .  A
C943        C944   1.409       .  A
C943        C946   1.452       .  S
C944        C947   1.452       .  S
C945        N952   1.157       .  T
C946        N951   1.157       .  T
C947        N949   1.157       .  T
C948        N950   1.158       .  T
C953        C954   1.424       .  A
C953        C958   1.421       .  A
C954        C955   1.413   1_565  A
C954        C959   1.454       .  S
C955        C956   1.421       .  A
C955        C962   1.455       .  S
C956        C957   1.422       .  A
C957        C958   1.416   1_545  A
C957        C960   1.453       .  S
C958        C961   1.453       .  S
C959        N966   1.158       .  T
C960        N965   1.158       .  T
C961        N963   1.157       .  T
C962        N964   1.157       .  T
C967        C968   1.417       .  A
C967        C972   1.417       .  A
C968        C969   1.415       .  A
C968        C973   1.451       .  S
C969        C970   1.414       .  A
C969        C976   1.451       .  S
C970        C971   1.414       .  A
C971        C972   1.414       .  A
C971        C974   1.452       .  S
C972        C975   1.451       .  S
C973        N980   1.157       .  T
C974        N979   1.157       .  T
C975        N977   1.157       .  T
C976        N978   1.157       .  T
C981        C982   1.414       .  A
C981        C986   1.413       .  A
C982        C983   1.411   1_565  A
C982        C987   1.452       .  S
C983        C984   1.414       .  A
C983        C990   1.452       .  S
C984        C985   1.416       .  A
C985        C986   1.414   1_545  A
C985        C988   1.451       .  S
C986        C989   1.451       .  S
C987        N994   1.157       .  T
C988        N993   1.157       .  T
C989        N991   1.157       .  T
C990        N992   1.157       .  T
C995        C996   1.413       .  A
C995       C1000   1.414       .  A
C996        C997   1.414   1_554  A
C996       C1001   1.451       .  S
C997        C998   1.415       .  A
C997       C1004   1.451       .  S
C998        C999   1.412       .  A
C999       C1000   1.414   1_556  A
C999       C1002   1.450       .  S
C1000      C1003   1.451       .  S
C1001      N1008   1.157       .  T
C1002      N1007   1.157       .  T
C1003      N1005   1.157       .  T
C1004      N1006   1.157       .  T
C1009      C1010   1.419       .  A
C1009      C1014   1.418       .  A
C1010      C1011   1.412       .  A
C1010      C1015   1.452       .  S
C1011      C1012   1.412       .  A
C1011      C1018   1.452       .  S
C1012      C1013   1.413       .  A
C1013      C1014   1.414       .  A
C1013      C1016   1.453       .  S
C1014      C1017   1.450       .  S
C1015      N1022   1.157       .  T
C1016      N1021   1.157       .  T
C1017      N1019   1.157       .  T
C1018      N1020   1.157       .  T
C1023      C1024   1.415       .  A
C1023      C1028   1.410       .  A
C1024      C1025   1.414       .  A
C1024      C1029   1.452       .  S
C1025      C1026   1.416       .  A
C1025      C1032   1.451       .  S
C1026      C1027   1.417       .  A
C1027      C1028   1.411       .  A
C1027      C1030   1.452       .  S
C1028      C1031   1.449       .  S
C1029      N1036   1.158       .  T
C1030      N1035   1.157       .  T
C1031      N1033   1.156       .  T
C1032      N1034   1.157       .  T
C1037      C1038   1.420       .  A
C1037      C1042   1.420       .  A
C1038      C1039   1.415   1_554  A
C1038      C1043   1.453       .  S
C1039      C1040   1.423       .  A
C1039      C1046   1.453       .  S
C1040      C1041   1.421       .  A
C1041      C1042   1.413   1_556  A
C1041      C1044   1.453       .  S
C1042      C1045   1.454       .  S
C1043      N1050   1.158       .  T
C1044      N1049   1.157       .  T
C1045      N1047   1.158       .  T
C1046      N1048   1.158       .  T
C1051      C1052   1.414       .  A
C1051      C1056   1.415       .  A
C1052      C1053   1.412       .  A
C1052      C1057   1.452       .  S
C1053      C1054   1.416       .  A
C1053      C1060   1.452       .  S
C1054      C1055   1.416       .  A
C1055      C1056   1.413       .  A
C1055      C1058   1.450       .  S
C1056      C1059   1.452       .  S
C1057      N1064   1.157       .  T
C1058      N1063   1.157       .  T
C1059      N1061   1.157       .  T
C1060      N1062   1.157       .  T
C1065      C1066   1.413       .  A
C1065      C1070   1.413       .  A
C1066      C1067   1.414   1_655  A
C1066      C1071   1.451       .  S
C1067      C1068   1.414       .  A
C1067      C1074   1.450       .  S
C1068      C1069   1.413       .  A
C1069      C1070   1.412   1_455  A
C1069      C1072   1.452       .  S
C1070      C1073   1.451       .  S
C1071      N1078   1.157       .  T
C1072      N1077   1.157       .  T
C1073      N1075   1.157       .  T
C1074      N1076   1.157       .  T
C1079      C1080   1.413       .  A
C1079      C1084   1.413       .  A
C1080      C1081   1.413       .  A
C1080      C1085   1.452       .  S
C1081      C1082   1.417       .  A
C1081      C1088   1.451       .  S
C1082      C1083   1.417       .  A
C1083      C1084   1.412       .  A
C1083      C1086   1.451       .  S
C1084      C1087   1.452       .  S
C1085      N1092   1.157       .  T
C1086      N1091   1.157       .  T
C1087      N1089   1.157       .  T
C1088      N1090   1.157       .  T
C1093      C1094   1.415       .  A
C1093      C1098   1.414       .  A
C1094      C1095   1.414   1_655  A
C1094      C1099   1.451       .  S
C1095      C1096   1.415       .  A
C1095      C1102   1.451       .  S
C1096      C1097   1.415       .  A
C1097      C1098   1.412   1_455  A
C1097      C1100   1.452       .  S
C1098      C1101   1.452       .  S
C1099      N1106   1.157       .  T
C1100      N1105   1.157       .  T
C1101      N1103   1.157       .  T
C1102      N1104   1.157       .  T
C1107      C1108   1.414       .  A
C1107      C1112   1.414       .  A
C1108      C1109   1.411   1_554  A
C1108      C1113   1.451       .  S
C1109      C1110   1.413       .  A
C1109      C1116   1.452       .  S
C1110      C1111   1.414       .  A
C1111      C1112   1.412   1_556  A
C1111      C1114   1.452       .  S
C1112      C1115   1.451       .  S
C1113      N1120   1.157       .  T
C1114      N1119   1.157       .  T
C1115      N1117   1.157       .  T
C1116      N1118   1.157       .  T
C1121      C1122   1.426       .  A
C1121      C1126   1.424       .  A
C1122      C1123   1.411       .  A
C1122      C1127   1.451       .  S
C1123      C1124   1.406       .  A
C1123      C1130   1.454       .  S
C1124      C1125   1.409       .  A
C1125      C1126   1.414       .  A
C1125      C1128   1.453       .  S
C1126      C1129   1.452       .  S
C1127      N1134   1.158       .  T
C1128      N1133   1.157       .  T
C1129      N1131   1.158       .  T
C1130      N1132   1.157       .  T
C1135      C1136   1.427       .  A
C1135      C1140   1.426       .  A
C1136      C1137   1.415       .  A
C1136      C1141   1.452       .  S
C1137      C1138   1.408       .  A
C1137      C1144   1.452       .  S
C1138      C1139   1.407       .  A
C1139      C1140   1.412       .  A
C1139      C1142   1.453       .  S
C1140      C1143   1.450       .  S
C1141      N1148   1.158       .  T
C1142      N1147   1.157       .  T
C1143      N1145   1.157       .  T
C1144      N1146   1.158       .  T
C1149      C1150   1.414       .  A
C1149      C1154   1.414       .  A
C1150      C1151   1.409   1_556  A
C1150      C1155   1.449       .  S
C1151      C1152   1.412       .  A
C1151      C1158   1.450       .  S
C1152      C1153   1.415       .  A
C1153      C1154   1.414   1_554  A
C1153      C1156   1.451       .  S
C1154      C1157   1.451       .  S
C1155      N1162   1.157       .  T
C1156      N1161   1.158       .  T
C1157      N1159   1.157       .  T
C1158      N1160   1.156       .  T
C1163      C1164   1.426       .  A
C1163      C1168   1.427       .  A
C1164      C1165   1.414       .  A
C1164      C1169   1.451       .  S
C1165      C1166   1.407       .  A
C1165      C1172   1.453       .  S
C1166      C1167   1.407       .  A
C1167      C1168   1.414       .  A
C1167      C1170   1.453       .  S
C1168      C1171   1.451       .  S
C1169      N1176   1.157       .  T
C1170      N1175   1.157       .  T
C1171      N1173   1.158       .  T
C1172      N1174   1.157       .  T
C1177      C1178   1.413       .  A
C1177      C1182   1.414       .  A
C1178      C1179   1.412   1_545  A
C1178      C1183   1.452       .  S
C1179      C1180   1.415       .  A
C1179      C1186   1.451       .  S
C1180      C1181   1.416       .  A
C1181      C1182   1.413   1_565  A
C1181      C1184   1.452       .  S
C1182      C1185   1.452       .  S
C1183      N1190   1.157       .  T
C1184      N1189   1.157       .  T
C1185      N1187   1.158       .  T
C1186      N1188   1.157       .  T
C1191      C1192   1.422       .  A
C1191      C1196   1.420       .  A
C1192      C1193   1.414       .  A
C1192      C1197   1.452       .  S
C1193      C1194   1.410       .  A
C1193      C1200   1.452       .  S
C1194      C1195   1.411       .  A
C1195      C1196   1.412       .  A
C1195      C1198   1.452       .  S
C1196      C1199   1.451       .  S
C1197      N1204   1.158       .  T
C1198      N1203   1.157       .  T
C1199      N1201   1.158       .  T
C1200      N1202   1.158       .  T
C1205      C1206   1.413       .  A
C1205      C1210   1.412       .  A
C1206      C1207   1.412   1_545  A
C1206      C1211   1.452       .  S
C1207      C1208   1.412       .  A
C1207      C1214   1.448       .  S
C1208      C1209   1.415       .  A
C1209      C1210   1.412   1_565  A
C1209      C1212   1.452       .  S
C1210      C1213   1.451       .  S
C1211      N1218   1.157       .  T
C1212      N1217   1.157       .  T
C1213      N1215   1.157       .  T
C1214      N1216   1.156       .  T
C1219      C1220   1.413       .  A
C1219      C1224   1.415       .  A
C1220      C1221   1.413   1_556  A
C1220      C1225   1.450       .  S
C1221      C1222   1.414       .  A
C1221      C1228   1.452       .  S
C1222      C1223   1.413       .  A
C1223      C1224   1.415   1_554  A
C1223      C1226   1.451       .  S
C1224      C1227   1.451       .  S
C1225      N1232   1.157       .  T
C1226      N1231   1.157       .  T
C1227      N1229   1.157       .  T
C1228      N1230   1.157       .  T
C1233      C1234   1.413       .  A
C1233      C1238   1.414       .  A
C1234      C1235   1.412   1_565  A
C1234      C1239   1.451       .  S
C1235      C1236   1.413       .  A
C1235      C1242   1.451       .  S
C1236      C1237   1.413       .  A
C1237      C1238   1.413   1_545  A
C1237      C1240   1.452       .  S
C1238      C1241   1.450       .  S
C1239      N1246   1.157       .  T
C1240      N1245   1.158       .  T
C1241      N1243   1.157       .  T
C1242      N1244   1.157       .  T
C1247      C1248   1.414       .  A
C1247      C1252   1.412       .  A
C1248      C1249   1.411   1_455  A
C1248      C1253   1.452       .  S
C1249      C1250   1.411       .  A
C1249      C1256   1.451       .  S
C1250      C1251   1.412       .  A
C1251      C1252   1.411   1_655  A
C1251      C1254   1.453       .  S
C1252      C1255   1.447       .  S
C1253      N1260   1.157       .  T
C1254      N1259   1.157       .  T
C1255      N1257   1.156       .  T
C1256      N1258   1.157       .  T
C1261      C1262   1.419       .  A
C1261      C1266   1.421       .  A
C1262      C1263   1.415   1_455  A
C1262      C1267   1.453       .  S
C1263      C1264   1.423       .  A
C1263      C1270   1.453       .  S
C1264      C1265   1.421       .  A
C1265      C1266   1.414   1_655  A
C1265      C1268   1.453       .  S
C1266      C1269   1.454       .  S
C1267      N1274   1.158       .  T
C1268      N1273   1.158       .  T
C1269      N1271   1.157       .  T
C1270      N1272   1.158       .  T
C1275      C1276   1.418       .  A
C1275      C1280   1.416       .  A
C1276      C1277   1.413   1_565  A
C1276      C1281   1.452       .  S
C1277      C1278   1.417       .  A
C1277      C1284   1.451       .  S
C1278      C1279   1.418       .  A
C1279      C1280   1.414   1_545  A
C1279      C1282   1.452       .  S
C1280      C1283   1.452       .  S
C1281      N1288   1.158       .  T
C1282      N1287   1.158       .  T
C1283      N1285   1.157       .  T
C1284      N1286   1.157       .  T
C1289      C1290   1.414       .  A
C1289      C1294   1.415       .  A
C1290      C1291   1.414       .  A
C1290      C1295   1.452       .  S
C1291      C1292   1.417       .  A
C1291      C1298   1.452       .  S
C1292      C1293   1.417       .  A
C1293      C1294   1.416       .  A
C1293      C1296   1.451       .  S
C1294      C1297   1.451       .  S
C1295      N1302   1.157       .  T
C1296      N1301   1.157       .  T
C1297      N1299   1.157       .  T
C1298      N1300   1.157       .  T
C1303      C1304   1.417       .  A
C1303      C1308   1.416       .  A
C1304      C1305   1.413       .  A
C1304      C1309   1.452       .  S
C1305      C1306   1.414       .  A
C1305      C1312   1.451       .  S
C1306      C1307   1.415       .  A
C1307      C1308   1.414       .  A
C1307      C1310   1.452       .  S
C1308      C1311   1.451       .  S
C1309      N1316   1.157       .  T
C1310      N1315   1.157       .  T
C1311      N1313   1.157       .  T
C1312      N1314   1.157       .  T
C1317      C1318   1.414       .  A
C1317      C1322   1.414       .  A
C1318      C1319   1.412       .  A
C1318      C1323   1.452       .  S
C1319      C1320   1.416       .  A
C1319      C1326   1.452       .  S
C1320      C1321   1.417       .  A
C1321      C1322   1.414       .  A
C1321      C1324   1.452       .  S
C1322      C1325   1.452       .  S
C1323      N1330   1.157       .  T
C1324      N1329   1.157       .  T
C1325      N1327   1.157       .  T
C1326      N1328   1.157       .  T
C1331      C1332   1.413       .  A
C1331      C1336   1.414       .  A
C1332      C1333   1.414       .  A
C1332      C1337   1.451       .  S
C1333      C1334   1.414       .  A
C1333      C1340   1.451       .  S
C1334      C1335   1.413       .  A
C1335      C1336   1.414       .  A
C1335      C1338   1.452       .  S
C1336      C1339   1.451       .  S
C1337      N1344   1.157       .  T
C1338      N1343   1.157       .  T
C1339      N1341   1.158       .  T
C1340      N1342   1.158       .  T
C1345      C1346   1.412       .  A
C1345      C1350   1.411       .  A
C1346      C1347   1.410       .  A
C1346      C1351   1.452       .  S
C1347      C1348   1.416       .  A
C1347      C1354   1.452       .  S
C1348      C1349   1.417       .  A
C1349      C1350   1.411       .  A
C1349      C1352   1.452       .  S
C1350      C1353   1.452       .  S
C1351      N1358   1.157       .  T
C1352      N1357   1.157       .  T
C1353      N1355   1.157       .  T
C1354      N1356   1.157       .  T
C1359      C1360   1.407       .  A
C1359      C1364   1.407       .  A
C1360      C1361   1.411       .  A
C1360      C1365   1.453       .  S
C1361      C1362   1.425       .  A
C1361      C1368   1.452       .  S
C1362      C1363   1.422       .  A
C1363      C1364   1.410       .  A
C1363      C1366   1.452       .  S
C1364      C1367   1.450       .  S
C1365      N1372   1.157       .  T
C1366      N1371   1.158       .  T
C1367      N1369   1.156       .  T
C1368      N1370   1.158       .  T
C1373      C1374   1.413       .  A
C1373      C1378   1.413       .  A
C1374      C1375   1.409       .  A
C1374      C1379   1.450       .  S
C1375      C1376   1.410       .  A
C1375      C1382   1.451       .  S
C1376      C1377   1.413       .  A
C1377      C1378   1.411       .  A
C1377      C1380   1.452       .  S
C1378      C1381   1.450       .  S
C1379      N1386   1.157       .  T
C1380      N1385   1.157       .  T
C1381      N1383   1.157       .  T
C1382      N1384   1.157       .  T
C1387      C1388   1.409       .  A
C1387      C1392   1.411       .  A
C1388      C1389   1.412       .  A
C1388      C1393   1.452       .  S
C1389      C1390   1.422       .  A
C1389      C1396   1.452       .  S
C1390      C1391   1.421       .  A
C1391      C1392   1.415       .  A
C1391      C1394   1.450       .  S
C1392      C1395   1.452       .  S
C1393      N1400   1.157       .  T
C1394      N1399   1.158       .  T
C1395      N1397   1.157       .  T
C1396      N1398   1.157       .  T
C1401      C1402   1.415       .  A
C1401      C1406   1.415       .  A
C1402      C1403   1.413       .  A
C1402      C1407   1.452       .  S
C1403      C1404   1.414       .  A
C1403      C1410   1.452       .  S
C1404      C1405   1.414       .  A
C1405      C1406   1.413       .  A
C1405      C1408   1.452       .  S
C1406      C1409   1.451       .  S
C1407      N1414   1.157       .  T
C1408      N1413   1.157       .  T
C1409      N1411   1.157       .  T
C1410      N1412   1.157       .  T
C1415      C1416   1.424       .  A
C1415      C1420   1.421       .  A
C1416      C1417   1.416       .  A
C1416      C1421   1.452       .  S
C1417      C1418   1.421       .  A
C1417      C1424   1.455       .  S
C1418      C1419   1.424       .  A
C1419      C1420   1.414       .  A
C1419      C1422   1.453       .  S
C1420      C1423   1.455       .  S
C1421      N1428   1.159       .  T
C1422      N1427   1.159       .  T
C1423      N1425   1.156       .  T
C1424      N1426   1.157       .  T
C1429      C1430   1.415       .  A
C1429      C1434   1.415       .  A
C1430      C1431   1.411       .  A
C1430      C1435   1.452       .  S
C1431      C1432   1.414       .  A
C1431      C1438   1.452       .  S
C1432      C1433   1.414       .  A
C1433      C1434   1.410       .  A
C1433      C1436   1.452       .  S
C1434      C1437   1.452       .  S
C1435      N1442   1.157       .  T
C1436      N1441   1.157       .  T
C1437      N1439   1.157       .  T
C1438      N1440   1.157       .  T
C1443      C1444   1.416       .  A
C1443      C1448   1.416       .  A
C1444      C1445   1.413       .  A
C1444      C1449   1.451       .  S
C1445      C1446   1.414       .  A
C1445      C1452   1.452       .  S
C1446      C1447   1.416       .  A
C1447      C1448   1.414       .  A
C1447      C1450   1.452       .  S
C1448      C1451   1.452       .  S
C1449      N1456   1.157       .  T
C1450      N1455   1.157       .  T
C1451      N1453   1.157       .  T
C1452      N1454   1.157       .  T
C1457      C1458   1.420       .  A
C1457      C1462   1.419       .  A
C1458      C1459   1.414       .  A
C1458      C1463   1.451       .  S
C1459      C1460   1.411       .  A
C1459      C1466   1.452       .  S
C1460      C1461   1.413       .  A
C1461      C1462   1.414       .  A
C1461      C1464   1.452       .  S
C1462      C1465   1.451       .  S
C1463      N1470   1.157       .  T
C1464      N1469   1.157       .  T
C1465      N1467   1.157       .  T
C1466      N1468   1.157       .  T
C1471      C1472   1.423       .  A
C1471      C1476   1.422       .  A
C1472      C1473   1.414       .  A
C1472      C1477   1.454       .  S
C1473      C1474   1.421       .  A
C1473      C1480   1.454       .  S
C1474      C1475   1.424       .  A
C1475      C1476   1.417       .  A
C1475      C1478   1.453       .  S
C1476      C1479   1.453       .  S
C1477      N1484   1.158       .  T
C1478      N1483   1.158       .  T
C1479      N1481   1.157       .  T
C1480      N1482   1.157       .  T
C1485      C1486   1.410       .  A
C1485      C1490   1.411       .  A
C1486      C1487   1.413       .  A
C1486      C1491   1.453       .  S
C1487      C1488   1.423       .  A
C1487      C1494   1.451       .  S
C1488      C1489   1.421       .  A
C1489      C1490   1.415       .  A
C1489      C1492   1.451       .  S
C1490      C1493   1.450       .  S
C1491      N1498   1.157       .  T
C1492      N1497   1.157       .  T
C1493      N1495   1.157       .  T
C1494      N1496   1.157       .  T
C1499      C1500   1.416       .  A
C1499      C1504   1.414       .  A
C1500      C1501   1.413       .  A
C1500      C1505   1.452       .  S
C1501      C1502   1.416       .  A
C1501      C1508   1.452       .  S
C1502      C1503   1.415       .  A
C1503      C1504   1.410       .  A
C1503      C1506   1.452       .  S
C1504      C1507   1.452       .  S
C1505      N1512   1.158       .  T
C1506      N1511   1.157       .  T
C1507      N1509   1.157       .  T
C1508      N1510   1.158       .  T
C1513      C1514   1.412       .  A
C1513      C1518   1.414       .  A
C1514      C1515   1.411       .  A
C1514      C1519   1.450       .  S
C1515      C1516   1.411       .  A
C1515      C1522   1.451       .  S
C1516      C1517   1.414       .  A
C1517      C1518   1.416       .  A
C1517      C1520   1.451       .  S
C1518      C1521   1.451       .  S
C1519      N1526   1.156       .  T
C1520      N1525   1.158       .  T
C1521      N1523   1.157       .  T
C1522      N1524   1.157       .  T
C1527      C1528   1.406       .  A
C1527      C1532   1.407       .  A
C1528      C1529   1.414       .  A
C1528      C1533   1.452       .  S
C1529      C1530   1.428       .  A
C1529      C1536   1.452       .  S
C1530      C1531   1.425       .  A
C1531      C1532   1.412       .  A
C1531      C1534   1.451       .  S
C1532      C1535   1.452       .  S
C1533      N1540   1.157       .  T
C1534      N1539   1.157       .  T
C1535      N1537   1.157       .  T
C1536      N1538   1.158       .  T
C1541      C1542   1.418       .  A
C1541      C1546   1.421       .  A
C1542      C1543   1.412       .  A
C1542      C1547   1.453       .  S
C1543      C1544   1.419       .  A
C1543      C1550   1.453       .  S
C1544      C1545   1.419       .  A
C1545      C1546   1.413       .  A
C1545      C1548   1.453       .  S
C1546      C1549   1.453       .  S
C1547      N1554   1.157       .  T
C1548      N1553   1.157       .  T
C1549      N1551   1.158       .  T
C1550      N1552   1.158       .  T
C1555      C1556   1.422       .  A
C1555      C1560   1.422       .  A
C1556      C1557   1.417       .  A
C1556      C1561   1.453       .  S
C1557      C1558   1.422       .  A
C1557      C1564   1.453       .  S
C1558      C1559   1.420       .  A
C1559      C1560   1.415       .  A
C1559      C1562   1.453       .  S
C1560      C1563   1.453       .  S
C1561      N1568   1.158       .  T
C1562      N1567   1.157       .  T
C1563      N1565   1.158       .  T
C1564      N1566   1.158       .  T
C1569      C1570   1.414       .  A
C1569      C1574   1.414       .  A
C1570      C1571   1.414       .  A
C1570      C1575   1.452       .  S
C1571      C1572   1.419       .  A
C1571      C1578   1.452       .  S
C1572      C1573   1.417       .  A
C1573      C1574   1.414       .  A
C1573      C1576   1.450       .  S
C1574      C1577   1.452       .  S
C1575      N1582   1.157       .  T
C1576      N1581   1.157       .  T
C1577      N1579   1.157       .  T
C1578      N1580   1.158       .  T
C1583      C1584   1.409       .  A
C1583      C1588   1.409       .  A
C1584      C1585   1.414       .  A
C1584      C1589   1.453       .  S
C1585      C1586   1.423       .  A
C1585      C1592   1.450       .  S
C1586      C1587   1.424       .  A
C1587      C1588   1.414       .  A
C1587      C1590   1.452       .  S
C1588      C1591   1.452       .  S
C1589      N1596   1.157       .  T
C1590      N1595   1.158       .  T
C1591      N1593   1.157       .  T
C1592      N1594   1.157       .  T
C1597      C1598   1.413       .  A
C1597      C1602   1.414       .  A
C1598      C1599   1.412       .  A
C1598      C1603   1.452       .  S
C1599      C1600   1.418       .  A
C1599      C1606   1.452       .  S
C1600      C1601   1.417       .  A
C1601      C1602   1.412       .  A
C1601      C1604   1.451       .  S
C1602      C1605   1.452       .  S
C1603      N1610   1.157       .  T
C1604      N1609   1.157       .  T
C1605      N1607   1.157       .  T
C1606      N1608   1.157       .  T
C1611      C1612   1.416       .  A
C1611      C1616   1.415       .  A
C1612      C1613   1.414       .  A
C1612      C1617   1.452       .  S
C1613      C1614   1.415       .  A
C1613      C1620   1.452       .  S
C1614      C1615   1.415       .  A
C1615      C1616   1.412       .  A
C1615      C1618   1.452       .  S
C1616      C1619   1.451       .  S
C1617      N1624   1.157       .  T
C1618      N1623   1.157       .  T
C1619      N1621   1.157       .  T
C1620      N1622   1.157       .  T
C1625      C1626   1.418       .  A
C1625      C1630   1.416       .  A
C1626      C1627   1.411       .  A
C1626      C1631   1.452       .  S
C1627      C1628   1.411       .  A
C1627      C1634   1.449       .  S
C1628      C1629   1.415       .  A
C1629      C1630   1.415       .  A
C1629      C1632   1.452       .  S
C1630      C1633   1.451       .  S
C1631      N1638   1.157       .  T
C1632      N1637   1.157       .  T
C1633      N1635   1.158       .  T
C1634      N1636   1.156       .  T
C1639      C1640   1.423       .  A
C1639      C1644   1.423       .  A
C1640      C1641   1.411       .  A
C1640      C1645   1.452       .  S
C1641      C1642   1.408       .  A
C1641      C1648   1.452       .  S
C1642      C1643   1.408       .  A
C1643      C1644   1.410       .  A
C1643      C1646   1.453       .  S
C1644      C1647   1.452       .  S
C1645      N1652   1.158       .  T
C1646      N1651   1.157       .  T
C1647      N1649   1.158       .  T
C1648      N1650   1.157       .  T
C1653      C1654   1.412       .  A
C1653      C1658   1.413       .  A
C1654      C1655   1.412       .  A
C1654      C1659   1.449       .  S
C1655      C1656   1.412       .  A
C1655      C1662   1.451       .  S
C1656      C1657   1.413       .  A
C1657      C1658   1.414       .  A
C1657      C1660   1.451       .  S
C1658      C1661   1.451       .  S
C1659      N1666   1.156       .  T
C1660      N1665   1.157       .  T
C1661      N1663   1.158       .  T
C1662      N1664   1.157       .  T
C1667      C1668   1.422       .  A
C1667      C1672   1.422       .  A
C1668      C1669   1.411       .  A
C1668      C1673   1.452       .  S
C1669      C1670   1.409       .  A
C1669      C1676   1.453       .  S
C1670      C1671   1.407       .  A
C1671      C1672   1.410       .  A
C1671      C1674   1.452       .  S
C1672      C1675   1.451       .  S
C1673      N1680   1.158       .  T
C1674      N1679   1.157       .  T
C1675      N1677   1.158       .  T
C1676      N1678   1.158       .  T
C1681      C1682   1.413       .  A
C1681      C1686   1.413       .  A
C1682      C1683   1.412       .  A
C1682      C1687   1.451       .  S
C1683      C1684   1.412       .  A
C1683      C1690   1.451       .  S
C1684      C1685   1.413       .  A
C1685      C1686   1.414       .  A
C1685      C1688   1.452       .  S
C1686      C1689   1.448       .  S
C1687      N1694   1.157       .  T
C1688      N1693   1.158       .  T
C1689      N1691   1.156       .  T
C1690      N1692   1.157       .  T
C1695      C1696   1.419       .  A
C1695      C1700   1.419       .  A
C1696      C1697   1.412       .  A
C1696      C1701   1.453       .  S
C1697      C1698   1.421       .  A
C1697      C1704   1.453       .  S
C1698      C1699   1.420       .  A
C1699      C1700   1.413       .  A
C1699      C1702   1.454       .  S
C1700      C1703   1.453       .  S
C1701      N1708   1.157       .  T
C1702      N1707   1.157       .  T
C1703      N1705   1.158       .  T
C1704      N1706   1.158       .  T
C1709      C1710   1.420       .  A
C1709      C1714   1.420       .  A
C1710      C1711   1.414       .  A
C1710      C1715   1.451       .  S
C1711      C1712   1.411       .  A
C1711      C1718   1.452       .  S
C1712      C1713   1.412       .  A
C1713      C1714   1.414       .  A
C1713      C1716   1.453       .  S
C1714      C1717   1.451       .  S
C1715      N1722   1.157       .  T
C1716      N1721   1.157       .  T
C1717      N1719   1.157       .  T
C1718      N1720   1.157       .  T
C1723      C1724   1.427       .  A
C1723      C1728   1.427       .  A
C1724      C1725   1.413       .  A
C1724      C1729   1.451       .  S
C1725      C1726   1.407       .  A
C1725      C1732   1.453       .  S
C1726      C1727   1.406       .  A
C1727      C1728   1.414       .  A
C1727      C1730   1.453       .  S
C1728      C1731   1.451       .  S
C1729      N1736   1.158       .  T
C1730      N1735   1.157       .  T
C1731      N1733   1.157       .  T
C1732      N1734   1.157       .  T
C1737      C1738   1.418       .  A
C1737      C1742   1.417       .  A
C1738      C1739   1.417       .  A
C1738      C1743   1.451       .  S
C1739      C1740   1.415       .  A
C1739      C1746   1.451       .  S
C1740      C1741   1.414       .  A
C1741      C1742   1.413       .  A
C1741      C1744   1.452       .  S
C1742      C1745   1.452       .  S
C1743      N1750   1.157       .  T
C1744      N1749   1.157       .  T
C1745      N1747   1.157       .  T
C1746      N1748   1.157       .  T
C1751      C1752   1.415       .  A
C1751      C1756   1.413       .  A
C1752      C1753   1.413       .  A
C1752      C1757   1.452       .  S
C1753      C1754   1.414       .  A
C1753      C1760   1.450       .  S
C1754      C1755   1.416       .  A
C1755      C1756   1.416       .  A
C1755      C1758   1.451       .  S
C1756      C1759   1.451       .  S
C1757      N1764   1.157       .  T
C1758      N1763   1.157       .  T
C1759      N1761   1.157       .  T
C1760      N1762   1.157       .  T
C1765      C1766   1.413       .  A
C1765      C1770   1.413       .  A
C1766      C1767   1.417       .  A
C1766      C1771   1.451       .  S
C1767      C1768   1.419       .  A
C1767      C1774   1.451       .  S
C1768      C1769   1.417       .  A
C1769      C1770   1.412       .  A
C1769      C1772   1.450       .  S
C1770      C1773   1.453       .  S
C1771      N1778   1.158       .  T
C1772      N1777   1.157       .  T
C1773      N1775   1.157       .  T
C1774      N1776   1.157       .  T
C1779      C1780   1.414       .  A
C1779      C1784   1.414       .  A
C1780      C1781   1.412       .  A
C1780      C1785   1.452       .  S
C1781      C1782   1.415       .  A
C1781      C1788   1.452       .  S
C1782      C1783   1.416       .  A
C1783      C1784   1.413       .  A
C1783      C1786   1.452       .  S
C1784      C1787   1.452       .  S
C1785      N1792   1.157       .  T
C1786      N1791   1.158       .  T
C1787      N1789   1.157       .  T
C1788      N1790   1.157       .  T
C1793      C1794   1.414       .  A
C1793      C1798   1.413       .  A
C1794      C1795   1.412       .  A
C1794      C1799   1.450       .  S
C1795      C1796   1.413       .  A
C1795      C1802   1.452       .  S
C1796      C1797   1.413       .  A
C1797      C1798   1.411       .  A
C1797      C1800   1.451       .  S
C1798      C1801   1.452       .  S
C1799      N1806   1.158       .  T
C1800      N1805   1.158       .  T
C1801      N1803   1.157       .  T
C1802      N1804   1.157       .  T
C1807      C1808   1.408       .  A
C1807      C1812   1.408       .  A
C1808      C1809   1.412       .  A
C1808      C1813   1.453       .  S
C1809      C1810   1.423       .  A
C1809      C1816   1.451       .  S
C1810      C1811   1.422       .  A
C1811      C1812   1.411       .  A
C1811      C1814   1.452       .  S
C1812      C1815   1.452       .  S
C1813      N1820   1.157       .  T
C1814      N1819   1.157       .  T
C1815      N1817   1.157       .  T
C1816      N1818   1.157       .  T
C1821      C1822   1.416       .  A
C1821      C1826   1.414       .  A
C1822      C1823   1.416       .  A
C1822      C1827   1.451       .  S
C1823      C1824   1.415       .  A
C1823      C1830   1.451       .  S
C1824      C1825   1.414       .  A
C1825      C1826   1.413       .  A
C1825      C1828   1.451       .  S
C1826      C1829   1.451       .  S
C1827      N1834   1.158       .  T
C1828      N1833   1.157       .  T
C1829      N1831   1.157       .  T
C1830      N1832   1.158       .  T
C1835      C1836   1.416       .  A
C1835      C1840   1.415       .  A
C1836      C1837   1.412       .  A
C1836      C1841   1.452       .  S
C1837      C1838   1.415       .  A
C1837      C1844   1.452       .  S
C1838      C1839   1.417       .  A
C1839      C1840   1.414       .  A
C1839      C1842   1.452       .  S
C1840      C1843   1.452       .  S
C1841      N1848   1.158       .  T
C1842      N1847   1.158       .  T
C1843      N1845   1.157       .  T
C1844      N1846   1.157       .  T
C1849      C1850   1.417       .  A
C1849      C1854   1.418       .  A
C1850      C1851   1.411       .  A
C1850      C1855   1.449       .  S
C1851      C1852   1.412       .  A
C1851      C1858   1.453       .  S
C1852      C1853   1.413       .  A
C1853      C1854   1.414       .  A
C1853      C1856   1.451       .  S
C1854      C1857   1.451       .  S
C1855      N1862   1.156       .  T
C1856      N1861   1.157       .  T
C1857      N1859   1.157       .  T
C1858      N1860   1.157       .  T
C1863      C1864   1.425       .  A
C1863      C1868   1.424       .  A
C1864      C1865   1.412       .  A
C1864      C1869   1.451       .  S
C1865      C1866   1.408       .  A
C1865      C1872   1.453       .  S
C1866      C1867   1.408       .  A
C1867      C1868   1.412       .  A
C1867      C1870   1.453       .  S
C1868      C1871   1.450       .  S
C1869      N1876   1.158       .  T
C1870      N1875   1.157       .  T
C1871      N1873   1.157       .  T
C1872      N1874   1.157       .  T
C1877      C1878   1.418       .  A
C1877      C1882   1.417       .  A
C1878      C1879   1.412       .  A
C1878      C1883   1.451       .  S
C1879      C1880   1.412       .  A
C1879      C1886   1.452       .  S
C1880      C1881   1.413       .  A
C1881      C1882   1.411       .  A
C1881      C1884   1.452       .  S
C1882      C1885   1.452       .  S
C1883      N1890   1.157       .  T
C1884      N1889   1.157       .  T
C1885      N1887   1.157       .  T
C1886      N1888   1.157       .  T
C1891      C1892   1.417       .  A
C1891      C1896   1.418       .  A
C1892      C1893   1.412       .  A
C1892      C1897   1.451       .  S
C1893      C1894   1.412       .  A
C1893      C1900   1.452       .  S
C1894      C1895   1.411       .  A
C1895      C1896   1.412       .  A
C1895      C1898   1.448       .  S
C1896      C1899   1.452       .  S
C1897      N1904   1.157       .  T
C1898      N1903   1.156       .  T
C1899      N1901   1.158       .  T
C1900      N1902   1.157       .  T
C1905      C1906   1.414       .  A
C1905      C1910   1.414       .  A
C1906      C1907   1.412   1_545  A
C1906      C1911   1.450       .  S
C1907      C1908   1.413       .  A
C1907      C1914   1.453       .  S
C1908      C1909   1.415       .  A
C1909      C1910   1.413   1_565  A
C1909      C1912   1.450       .  S
C1910      C1913   1.453       .  S
C1911      N1918   1.159       .  T
C1912      N1917   1.159       .  T
C1913      N1915   1.156       .  T
C1914      N1916   1.156       .  T
C1919      C1920   1.419       .  A
C1919      C1924   1.418       .  A
C1920      C1921   1.414       .  A
C1920      C1925   1.451       .  S
C1921      C1922   1.412       .  A
C1921      C1928   1.452       .  S
C1922      C1923   1.412       .  A
C1923      C1924   1.412       .  A
C1923      C1926   1.452       .  S
C1924      C1927   1.451       .  S
C1925      N1932   1.158       .  T
C1926      N1931   1.157       .  T
C1927      N1929   1.157       .  T
C1928      N1930   1.157       .  T
C1933      C1934   1.413       .  A
C1933      C1938   1.413       .  A
C1934      C1935   1.413       .  A
C1934      C1939   1.452       .  S
C1935      C1936   1.417       .  A
C1935      C1942   1.450       .  S
C1936      C1937   1.417       .  A
C1937      C1938   1.413       .  A
C1937      C1940   1.451       .  S
C1938      C1941   1.452       .  S
C1939      N1946   1.157       .  T
C1940      N1945   1.157       .  T
C1941      N1943   1.157       .  T
C1942      N1944   1.157       .  T
C1947      C1948   1.414       .  A
C1947      C1952   1.413       .  A
C1948      C1949   1.413   1_655  A
C1948      C1953   1.451       .  S
C1949      C1950   1.413       .  A
C1949      C1956   1.451       .  S
C1950      C1951   1.412       .  A
C1951      C1952   1.411   1_455  A
C1951      C1954   1.453       .  S
C1952      C1955   1.447       .  S
C1953      N1960   1.157       .  T
C1954      N1959   1.157       .  T
C1955      N1957   1.156       .  T
C1956      N1958   1.157       .  T
C1961      C1962   1.407       .  A
C1961      C1966   1.408       .  A
C1962      C1963   1.414       .  A
C1962      C1967   1.453       .  S
C1963      C1964   1.427       .  A
C1963      C1970   1.451       .  S
C1964      C1965   1.427       .  A
C1965      C1966   1.416       .  A
C1965      C1968   1.451       .  S
C1966      C1969   1.453       .  S
C1967      N1974   1.157       .  T
C1968      N1973   1.158       .  T
C1969      N1971   1.157       .  T
C1970      N1972   1.157       .  T
C1975      C1976   1.414       .  A
C1975      C1980   1.416       .  A
C1976      C1977   1.414       .  A
C1976      C1981   1.451       .  S
C1977      C1978   1.416       .  A
C1977      C1984   1.451       .  S
C1978      C1979   1.416       .  A
C1979      C1980   1.414       .  A
C1979      C1982   1.451       .  S
C1980      C1983   1.452       .  S
C1981      N1988   1.157       .  T
C1982      N1987   1.158       .  T
C1983      N1985   1.158       .  T
C1984      N1986   1.157       .  T
C1989      C1990   1.413       .  A
C1989      C1994   1.413       .  A
C1990      C1991   1.411   1_455  A
C1990      C1995   1.452       .  S
C1991      C1992   1.413       .  A
C1991      C1998   1.452       .  S
C1992      C1993   1.413       .  A
C1993      C1994   1.410   1_655  A
C1993      C1996   1.451       .  S
C1994      C1997   1.452       .  S
C1995      N2002   1.158       .  T
C1996      N2001   1.157       .  T
C1997      N1999   1.157       .  T
C1998      N2000   1.157       .  T
C2003      C2004   1.414       .  A
C2003      C2008   1.414       .  A
C2004      C2005   1.412   1_565  A
C2004      C2009   1.452       .  S
C2005      C2006   1.415       .  A
C2005      C2012   1.452       .  S
C2006      C2007   1.415       .  A
C2007      C2008   1.414   1_545  A
C2007      C2010   1.451       .  S
C2008      C2011   1.452       .  S
C2009      N2016   1.157       .  T
C2010      N2015   1.157       .  T
C2011      N2013   1.157       .  T
C2012      N2014   1.157       .  T
