geometry optimzed in LAMMPS
_audit_creation_date              2020-12-01 
_audit_creation_method            'lammps2cif' 
_symmetry_space_group_name_H-M    'P1' 
_symmetry_Int_Tables_number       1 
_symmetry_cell_setting            triclinic 
loop_ 
_symmetry_equiv_pos_as_xyz 
  x,y,z 
_cell_length_a                    32.86866757 
_cell_length_b                    15.063394362972462 
_cell_length_c                    33.592724431692375 
_cell_angle_alpha                 90.50180480224482 
_cell_angle_beta                  90.04930070580609 
_cell_angle_gamma                 90.19278893890234 
loop_ 
_atom_site_label 
_atom_site_type_symbol 
_atom_site_fract_x 
_atom_site_fract_y 
_atom_site_fract_z 
_atom_site_charge 
C1          C  0.09402785  0.16028760  0.39863624     0.02500
C2          C  0.09943889  0.07820327  0.38022338     0.02500
C3          C  0.12994139  0.02182387  0.39705479    -0.18000
C4          C  0.15946659  0.05487415  0.42537984     0.02500
C5          C  0.15911626  0.15779400  0.43110202     0.02500
C6          C  0.12346043  0.20058520  0.42128905    -0.18000
H7          H  0.11981965  0.27089092  0.42763865     0.04500
H8          H  0.13156525  0.95309269  0.38762673     0.04500
O9          O  0.90516262  0.06933993  0.24289574    -0.71600
O10         O  0.96522819  0.07925220  0.14069044    -0.71800
O11         O  0.88313163  0.07820576  0.16340208    -0.71600
O12         O  0.98536806  0.07116577  0.22106336    -0.71600
O13         O  0.96309827  0.45296636  0.24123011    -0.71600
O14         O  0.90794515  0.45851337  0.13918731    -0.71600
O15         O  0.98503591  0.46149034  0.16425396    -0.71600
O16         O  0.88173352  0.45193717  0.21687799    -0.71700
V17         V  0.93435512  0.07736655  0.19224944     1.35200
V18         V  0.93430695  0.45242929  0.19013144     1.35200
C19         C  0.87875386  0.00867089  0.24556822     0.77700
C20         C  0.98938707  0.51511313  0.13679193     0.77700
C21         C  0.88209267  0.51872184  0.13595644     0.77600
C22         C  0.99024724  0.00911210  0.24489242     0.77600
O23         O  0.88413124  0.20782125  0.22208169    -0.71600
O24         O  0.99686862  0.19635149  0.18477557    -0.71800
O25         O  0.95707552  0.19586004  0.25892702    -0.71600
O26         O  0.92026820  0.20603238  0.14809739    -0.71600
O27         O  0.89645173  0.32518364  0.16993899    -0.71600
O28         O  0.98806374  0.31316500  0.24244533    -0.71600
O29         O  0.97902145  0.31599684  0.16071972    -0.71600
O30         O  0.90617645  0.32504144  0.25056095    -0.73300
V31         V  0.93980596  0.19896881  0.20345113     1.35200
V32         V  0.94282523  0.32396712  0.20558882     1.35200
C33         C  0.87883185  0.26633037  0.24855919     0.77700
C34         C  0.00585900  0.25863400  0.16233484     0.77700
C35         C  0.98144160  0.25677455  0.26888621     0.77600
C36         C  0.89441427  0.26607484  0.14335026     0.77600
C37         C  0.12328865  0.39403658  0.03556026     0.02500
C38         C  0.13852985  0.30972353  0.04253572     0.02500
C39         C  0.16094693  0.26394886  0.01437128    -0.18000
C40         C  0.17440263  0.30422903  0.47945277     0.02500
C41         C  0.16839352  0.40692583  0.47674489     0.02500
C42         C  0.14113997  0.44471145  0.00493211    -0.18000
H43         H  0.13335414  0.51421959  0.00254700     0.04500
H44         H  0.16545127  0.19341819  0.01874486     0.04500
C45         C  0.68933292  0.24129511  0.44569395    -0.02300
C46         C  0.68864320  0.49131777  0.44605535    -0.02300
C47         C  0.66139623  0.06565670  0.47080400     0.02500
C48         C  0.66227016  0.16964637  0.47052594     0.02500
C49         C  0.63602800  0.21442024  0.99665425    -0.18000
C50         C  0.61116629  0.17067056  0.02334811     0.02500
C51         C  0.60966045  0.07717694  0.02384541     0.02500
C52         C  0.63381609  0.02666608  0.99776150    -0.18000
H53         H  0.63185741  0.95498134  0.99942182     0.04500
H54         H  0.63547447  0.28640435  0.99709676     0.04500
C55         C  0.66413994  0.31355193  0.41852891     0.02500
C56         C  0.66498505  0.41746856  0.41832355     0.02500
C57         C  0.64306272  0.45919224  0.38816854    -0.18000
C58         C  0.62004100  0.41274476  0.36024242     0.02500
C59         C  0.61471743  0.31988805  0.36308638     0.02500
C60         C  0.63739689  0.27200255  0.39098868    -0.18000
H61         H  0.63351360  0.20057422  0.39168825     0.04500
H62         H  0.64364836  0.53102362  0.38619927     0.04500
C63         C  0.26215397  0.40207101  0.36447524     0.02500
C64         C  0.25672053  0.31018836  0.35811870     0.02500
C65         C  0.23237333  0.26187752  0.38460154    -0.18000
C66         C  0.21107728  0.30277051  0.41647301     0.02500
C67         C  0.21188970  0.40675866  0.41797836     0.02500
C68         C  0.23813551  0.44875329  0.39129463    -0.18000
H69         H  0.24149805  0.52037609  0.39237602     0.04500
H70         H  0.23136639  0.19028906  0.38124284     0.04500
C71         C  0.18932225  0.98019376  0.44703627    -0.02300
C72         C  0.22012410  0.05278798  0.46893449     0.02500
C73         C  0.22302759  0.15610454  0.46582337     0.02500
C74         C  0.25627132  0.19779479  0.98404164    -0.18000
C75         C  0.28251828  0.15340258  0.00915673     0.02500
C76         C  0.27681595  0.06227767  0.01711762     0.02500
C77         C  0.24802447  0.01280562  0.99537199    -0.18000
H78         H  0.24589308  0.94221484  0.00096147     0.04500
H79         H  0.26016403  0.26905034  0.98128365     0.04500
C80         C  0.19208204  0.23009858  0.44777008    -0.02300
O81         O  0.41111662  0.07135912  0.15263993    -0.71600
O82         O  0.46928712  0.06710227  0.25323543    -0.71800
O83         O  0.49062623  0.07565161  0.17390891    -0.71600
O84         O  0.38736371  0.05975742  0.23077786    -0.71600
O85         O  0.41344244  0.44194476  0.25106942    -0.71600
O86         O  0.46606820  0.45822758  0.14814324    -0.71600
O87         O  0.49213311  0.45223827  0.22515268    -0.71600
O88         O  0.38694565  0.45012020  0.17315401    -0.71700
V89         V  0.43931041  0.07271416  0.20301860     1.35200
V90         V  0.43977479  0.44799582  0.19953640     1.35200
C91         C  0.38450354  0.01256353  0.14873035     0.77700
C92         C  0.49556979  0.50900400  0.25268442     0.77700
C93         C  0.49327944  0.01808603  0.14663952     0.77600
C94         C  0.38544535  0.49765016  0.25497914     0.77600
O95         O  0.38678529  0.20987962  0.15941794    -0.71600
O96         O  0.48808215  0.19965062  0.21956157    -0.71800
O97         O  0.40768299  0.20193604  0.23858627    -0.71600
O98         O  0.46767282  0.20434856  0.13946060    -0.71600
O99         O  0.49157490  0.32172331  0.16643435    -0.71600
O100        O  0.38377442  0.32027708  0.21605386    -0.71600
O101        O  0.46323945  0.31736753  0.24322207    -0.71600
O102        O  0.41338326  0.32768586  0.13820072    -0.71700
V103        V  0.43741974  0.19998087  0.18903394     1.35200
V104        V  0.43802094  0.32477853  0.19107211     1.35200
C105        C  0.38685804  0.26850230  0.13334307     0.77700
C106        C  0.48955338  0.25771879  0.24666517     0.77700
C107        C  0.37981713  0.25808339  0.24060658     0.77600
C108        C  0.49426804  0.26494683  0.13885964     0.77600
C109        C  0.77234678  0.16261773  0.37343182     0.02500
C110        C  0.77641547  0.06993842  0.37800166     0.02500
C111        C  0.74891216  0.02282762  0.40142750    -0.18000
C112        C  0.71774286  0.06420548  0.42324157     0.02500
C113        C  0.71675336  0.16783536  0.42190666     0.02500
C114        C  0.74422193  0.20950231  0.39610177    -0.18000
H115        H  0.74297441  0.28090289  0.39247172     0.04500
H116        H  0.75131746  0.95106690  0.40162858     0.04500
C117        C  0.76529848  0.41836250  0.02399346     0.02500
C118        C  0.76885503  0.32441105  0.02379013     0.02500
C119        C  0.74305508  0.27466062  0.99876840    -0.18000
C120        C  0.71492718  0.31473593  0.47227518     0.02500
C121        C  0.71343316  0.41847511  0.47251454     0.02500
C122        C  0.73864649  0.46228249  0.99938680    -0.18000
H123        H  0.73881910  0.53432242  0.00043823     0.04500
H124        H  0.74493487  0.20296404  0.00001692     0.04500
C125        C  0.29577862  0.26003394  0.06386496    -0.08900
C126        C  0.31151031  0.20683874  0.03317832     0.07300
C127        C  0.35333504  0.18859600  0.03233284    -0.02700
C128        C  0.37735072  0.21077990  0.06522037    -0.07100
C129        C  0.36138828  0.25935402  0.09734661     0.06400
C130        C  0.32023443  0.28573919  0.09598723    -0.02200
Br131      Br  0.29374553  0.34614752  0.13874487    -0.01900
H132        H  0.26346863  0.27417752  0.06477274     0.10300
H133        H  0.40794777  0.18501390  0.06671229     0.08300
Br134      Br  0.37822219  0.13114070  0.48747437    -0.02300
C135        C  0.36163707  0.97099701  0.08035490    -0.08900
C136        C  0.35362795  0.01468860  0.11658684     0.07300
C137        C  0.31642668  0.06027179  0.12083173    -0.02700
C138        C  0.28821301  0.06046900  0.08972372    -0.07100
C139        C  0.29776971  0.02379776  0.05243574     0.06400
C140        C  0.33370598  0.97415578  0.04870522    -0.02200
Br141      Br  0.34584076  0.91111346  0.00092276    -0.01900
H142        H  0.38991836  0.93538401  0.07642288     0.10300
H143        H  0.26072438  0.09937465  0.09301317     0.08300
Br144      Br  0.30396821  0.13445804  0.16536165    -0.02300
C145        C  0.28216154  0.48199908  0.30461553    -0.08900
C146        C  0.29318299  0.45116840  0.34189244     0.07300
C147        C  0.33463841  0.44797885  0.35232011    -0.02700
C148        C  0.36426152  0.47044033  0.32446912    -0.07100
C149        C  0.35333983  0.48920897  0.28529212     0.06400
C150        C  0.31172424  0.49268752  0.27553259    -0.02200
Br151      Br  0.29270453  0.47407065  0.22330922    -0.01900
H152        H  0.25034167  0.48191510  0.29615469     0.10300
H153        H  0.39592511  0.46885525  0.33287991     0.08300
Br154      Br  0.35277221  0.40365141  0.40200967    -0.02300
C155        C  0.30542751  0.27159425  0.25754939    -0.08900
C156        C  0.34506703  0.25040698  0.26947409     0.07300
C157        C  0.35018759  0.22135094  0.30904307    -0.02700
C158        C  0.31885364  0.22956655  0.33706944    -0.07100
C159        C  0.28125005  0.26476186  0.32636326     0.06400
C160        C  0.27354906  0.27790560  0.28542286    -0.02200
Br161      Br  0.22077089  0.30931046  0.26634319    -0.01900
H162        H  0.29940907  0.28549836  0.22661148     0.10300
H163        H  0.32501596  0.21542719  0.36806024     0.08300
Br164      Br  0.39935951  0.17451092  0.32809274    -0.02300
C165        C  0.56283999  0.51206203  0.34552031    -0.08900
C166        C  0.59611324  0.46413302  0.33120095     0.07300
C167        C  0.59956133  0.44791161  0.29015912    -0.02700
C168        C  0.56660607  0.46522233  0.26540633    -0.07100
C169        C  0.53100479  0.50525026  0.28009315     0.06400
C170        C  0.53026527  0.53203260  0.32053374    -0.02200
Br171      Br  0.48418650  0.57969116  0.34661015    -0.01900
H172        H  0.56012131  0.52501331  0.37720299     0.10300
H173        H  0.56819778  0.44261077  0.23484923     0.08300
Br174      Br  0.64780479  0.39905460  0.26684599    -0.02300
C175        C  0.54163874  0.30479292  0.34648176    -0.08900
C176        C  0.58147270  0.27634698  0.33926970     0.07300
C177        C  0.58919657  0.22699378  0.30430052    -0.02700
C178        C  0.55866637  0.21839179  0.27480857    -0.07100
C179        C  0.51996209  0.25729607  0.28001737     0.06400
C180        C  0.51156621  0.29814567  0.31718391    -0.02200
Br181      Br  0.46052348  0.35064161  0.33024688    -0.01900
H182        H  0.53496700  0.34087600  0.37375262     0.10300
H183        H  0.56573545  0.18424059  0.24722873     0.08300
Br184      Br  0.64153189  0.17439501  0.29550791    -0.02300
C185        C  0.56750363  0.26368388  0.11867250    -0.08900
C186        C  0.52627255  0.26804428  0.10790547     0.07300
C187        C  0.51618047  0.26705864  0.06713095    -0.02700
C188        C  0.54512214  0.24180182  0.03888879    -0.07100
C189        C  0.58503695  0.22383998  0.05051223     0.06400
C190        C  0.59716730  0.24427105  0.08979592    -0.02200
Br191      Br  0.65334346  0.24068224  0.10510671    -0.01900
H192        H  0.57634543  0.27047855  0.14962138     0.10300
H193        H  0.53615291  0.23307448  0.00805708     0.08300
Br194      Br  0.46508899  0.30848110  0.04803476    -0.02300
C195        C  0.51337121  0.00704471  0.07524813    -0.08900
C196        C  0.52488699  0.01998966  0.11519498     0.07300
C197        C  0.56635384  0.03453434  0.12400998    -0.02700
C198        C  0.59505803  0.03677066  0.09336778    -0.07100
C199        C  0.58289627  0.03351375  0.05344204     0.06400
C200        C  0.54192820  0.01498632  0.04440775    -0.02200
Br201      Br  0.52192408  0.51157420  0.99038829    -0.01900
H202        H  0.48049104  0.49838996  0.06804138     0.10300
H203        H  0.62648209  0.05163693  0.10056553     0.08300
Br204      Br  0.58565212  0.06154051  0.17638101    -0.02300
C205        C  0.07051231  0.24160966  0.05803369    -0.08900
C206        C  0.11691103  0.26244955  0.07247509     0.07300
C207        C  0.12613405  0.28436425  0.11972143    -0.02700
C208        C  0.08834360  0.28223859  0.15140513    -0.07100
C209        C  0.04206640  0.26071849  0.13580381     0.06400
C210        C  0.03392690  0.24401448  0.08937158    -0.02200
Br211      Br  0.98104860  0.26940318  0.06958826    -0.01900
H212        H  0.06337943  0.24034488  0.02655526     0.10300
H213        H  0.09416287  0.29233552  0.18264336     0.08300
Br214      Br  0.17871572  0.32198850  0.13720069    -0.02300
C215        C  0.78322335  0.19104908  0.30154225    -0.08900
C216        C  0.79409563  0.20985593  0.34105826     0.07300
C217        C  0.82764693  0.26559258  0.34848520    -0.02700
C218        C  0.85265803  0.29160945  0.31693148    -0.07100
C219        C  0.84547965  0.26035066  0.27803554     0.06400
C220        C  0.80917011  0.21311004  0.27022734    -0.02200
Br221      Br  0.79436298  0.17083434  0.21836469    -0.01900
H222        H  0.75607418  0.15236891  0.29533036     0.10300
H223        H  0.87986874  0.32966404  0.32350813     0.08300
Br224      Br  0.84258035  0.30133407  0.40119895    -0.02300
C225        C  0.86561347  0.22908912  0.07312267    -0.08900
C226        C  0.86088937  0.26460440  0.11195115     0.07300
C227        C  0.82222566  0.29930394  0.12106366    -0.02700
C228        C  0.79076391  0.30308553  0.09332755    -0.07100
C229        C  0.79708486  0.28092728  0.05357148     0.06400
C230        C  0.83431053  0.23820206  0.04393101    -0.02200
Br231      Br  0.84366268  0.19216835  0.99173730    -0.01900
H232        H  0.89396953  0.19764628  0.06492612     0.10300
H233        H  0.76226484  0.33382131  0.10191687     0.08300
Br234      Br  0.81034902  0.35158639  0.17000177    -0.02300
C235        C  0.06012064  0.48821728  0.04496454    -0.08900
C236        C  0.08672869  0.42374010  0.06023546     0.07300
C237        C  0.07366860  0.37598511  0.09607596    -0.02700
C238        C  0.05158887  0.43417313  0.12190028    -0.07100
C239        C  0.02245744  0.49388130  0.10725549     0.06400
C240        C  0.02536708  0.51468238  0.06627559    -0.02200
Br241      Br  0.98439503  0.07280182  0.03735625    -0.01900
H242        H  0.06430185  0.51236433  0.01498504     0.10300
H243        H  0.05205061  0.42278820  0.15356536     0.08300
Br244      Br  0.08959666  0.13721013  0.11371770    -0.02300
C245        C  0.81252362  0.54491204  0.10914992    -0.08900
C246        C  0.85293692  0.51803159  0.10288734     0.07300
C247        C  0.86357588  0.47929281  0.06597814    -0.02700
C248        C  0.83442346  0.46321712  0.03742999    -0.07100
C249        C  0.79377190  0.47359209  0.04686154     0.06400
C250        C  0.78240783  0.52060377  0.08151400    -0.02200
Br251      Br  0.72641496  0.54131125  0.09436115    -0.01900
H252        H  0.80378739  0.57594161  0.13704265     0.10300
H253        H  0.84286202  0.42892766  0.01012344     0.08300
Br254      Br  0.91457775  0.42837290  0.05405360    -0.02300
C255        C  0.86993787  0.01504624  0.31929446    -0.08900
C256        C  0.85171157  0.00046124  0.28169801     0.07300
C257        C  0.80913655  0.98062058  0.28167863    -0.02700
C258        C  0.78646368  0.98712006  0.31652468    -0.07100
C259        C  0.80377781  0.01980182  0.35116701     0.06400
C260        C  0.84618459  0.02532548  0.35392708    -0.02200
Br261      Br  0.87118067  0.04160015  0.40504913    -0.01900
H262        H  0.90268001  0.01976062  0.32146949     0.10300
H263        H  0.75361193  0.97970784  0.31529243     0.08300
Br264      Br  0.77402918  0.96156133  0.23802110    -0.02300
C265        C  0.05249857  0.27873374  0.30360109    -0.08900
C266        C  0.00477209  0.25569185  0.30675632     0.07300
C267        C  0.98765912  0.20918411  0.34680450    -0.02700
C268        C  0.01776840  0.18972070  0.38378696    -0.07100
C269        C  0.06565283  0.21633847  0.38018493     0.06400
C270        C  0.08295771  0.26095730  0.33970692    -0.02200
Br271      Br  0.14003006  0.27069089  0.33003400    -0.01900
H272        H  0.06520987  0.29059100  0.27472784     0.10300
H273        H  0.00684999  0.15298094  0.40922762     0.08300
Br274      Br  0.93219965  0.18090300  0.35229467    -0.02300
C275        C  0.08259292  0.98604787  0.31687438    -0.08900
C276        C  0.07402199  0.06072464  0.34192381     0.07300
C277        C  0.04621667  0.12887172  0.32500229    -0.02700
C278        C  0.03038653  0.10147013  0.28742054    -0.07100
C279        C  0.02252437  0.01643884  0.27693018     0.06400
C280        C  0.05843108  0.96818767  0.28222267    -0.02200
Br281      Br  0.08792547  0.42917163  0.23592862    -0.01900
H282        H  0.11004257  0.94855137  0.32153316     0.10300
H283        H  0.03353879  0.14514811  0.26232843     0.08300
Br284      Br  0.02401732  0.35231826  0.36618831    -0.02300
C285        C  0.09402775  0.16028762  0.89863639     0.02500
C286        C  0.09943882  0.07820335  0.88022349     0.02500
C287        C  0.12994136  0.02182394  0.89705489    -0.18000
C288        C  0.15946656  0.05487427  0.92537994     0.02500
C289        C  0.15911620  0.15779411  0.93110212     0.02500
C290        C  0.12346036  0.20058527  0.92128914    -0.18000
H291        H  0.11981961  0.27089093  0.92763866     0.04500
H292        H  0.13156525  0.95309288  0.88762685     0.04500
O293        O  0.90516261  0.06934000  0.74289572    -0.71600
O294        O  0.96522831  0.07925247  0.64069052    -0.71800
O295        O  0.88313173  0.07820591  0.66340201    -0.71600
O296        O  0.98536798  0.07116608  0.72106351    -0.71600
O297        O  0.96309843  0.45296656  0.74123009    -0.71600
O298        O  0.90794536  0.45851359  0.63918731    -0.71600
O299        O  0.98503606  0.46149061  0.66425400    -0.71600
O300        O  0.88173382  0.45193745  0.71687816    -0.71700
V301        V  0.93435515  0.07736672  0.69224946     1.35200
V302        V  0.93430712  0.45242951  0.69013147     1.35200
C303        C  0.87875385  0.00867094  0.74556818     0.77700
C304        C  0.98938735  0.51511359  0.63679210     0.77700
C305        C  0.88209282  0.51872197  0.63595648     0.77600
C306        C  0.99024718  0.00911229  0.74489251     0.77600
O307        O  0.88413127  0.20782148  0.72208173    -0.71600
O308        O  0.99686866  0.19635172  0.68477560    -0.71800
O309        O  0.95707554  0.19586020  0.75892713    -0.71600
O310        O  0.92026825  0.20603259  0.64809750    -0.71600
O311        O  0.89645181  0.32518394  0.66993909    -0.71600
O312        O  0.98806378  0.31316515  0.74244553    -0.71600
O313        O  0.97902154  0.31599718  0.66071986    -0.71600
O314        O  0.90617648  0.32504148  0.75056114    -0.73300
V315        V  0.93980601  0.19896901  0.70345121     1.35200
V316        V  0.94282529  0.32396733  0.70558898     1.35200
C317        C  0.87883185  0.26633049  0.74855928     0.77700
C318        C  0.00585909  0.25863432  0.66233495     0.77700
C319        C  0.98144159  0.25677472  0.76888639     0.77600
C320        C  0.89441431  0.26607503  0.64335038     0.77600
C321        C  0.12328883  0.39403647  0.53556026     0.02500
C322        C  0.13852996  0.30972341  0.54253572     0.02500
C323        C  0.16094702  0.26394835  0.51437129    -0.18000
C324        C  0.17440249  0.30422927  0.97945276     0.02500
C325        C  0.16839333  0.40692608  0.97674489     0.02500
C326        C  0.14114022  0.44471119  0.50493212    -0.18000
H327        H  0.13335435  0.51421994  0.50254695     0.04500
H328        H  0.16545115  0.19341942  0.51874478     0.04500
C329        C  0.68933293  0.24129485  0.94569393    -0.02300
C330        C  0.68864324  0.49131760  0.94605529    -0.02300
C331        C  0.66139624  0.06565633  0.97080397     0.02500
C332        C  0.66227018  0.16964601  0.97052591     0.02500
C333        C  0.63602795  0.21442085  0.49665427    -0.18000
C334        C  0.61116634  0.17067084  0.52334819     0.02500
C335        C  0.60966065  0.07717721  0.52384558     0.02500
C336        C  0.63381621  0.02666669  0.49776159    -0.18000
H337        H  0.63185753  0.95498015  0.49942194     0.04500
H338        H  0.63547439  0.28640330  0.49709676     0.04500
C339        C  0.66413999  0.31355177  0.91852887     0.02500
C340        C  0.66498508  0.41746843  0.91832350     0.02500
C341        C  0.64306273  0.45919179  0.88816848    -0.18000
C342        C  0.62004088  0.41274458  0.86024246     0.02500
C343        C  0.61471745  0.31988782  0.86308636     0.02500
C344        C  0.63739698  0.27200244  0.89098861    -0.18000
H345        H  0.63351375  0.20057396  0.89168817     0.04500
H346        H  0.64364840  0.53102486  0.88619913     0.04500
C347        C  0.26215392  0.40207123  0.86447537     0.02500
C348        C  0.25672044  0.31018863  0.85811880     0.02500
C349        C  0.23237317  0.26187773  0.88460155    -0.18000
C350        C  0.21107722  0.30277066  0.91647308     0.02500
C351        C  0.21188969  0.40675882  0.91797848     0.02500
C352        C  0.23813539  0.44875350  0.89129467    -0.18000
H353        H  0.24149784  0.52037647  0.89237595     0.04500
H354        H  0.23136616  0.19028925  0.88124278     0.04500
C355        C  0.18932228  0.98019391  0.94703634    -0.02300
C356        C  0.22012417  0.05278813  0.96893449     0.02500
C357        C  0.22302763  0.15610472  0.96582338     0.02500
C358        C  0.25627123  0.19779471  0.48404167    -0.18000
C359        C  0.28251818  0.15340259  0.50915680     0.02500
C360        C  0.27681585  0.06227767  0.51711768     0.02500
C361        C  0.24802436  0.01280543  0.49537205    -0.18000
H362        H  0.24589299  0.94221530  0.50096150     0.04500
H363        H  0.26016395  0.26905034  0.48128363     0.04500
C364        C  0.19208199  0.23009877  0.94777014    -0.02300
O365        O  0.41111659  0.07135914  0.65263994    -0.71600
O366        O  0.46928719  0.06710238  0.75323539    -0.71800
O367        O  0.49062628  0.07565152  0.67390887    -0.71600
O368        O  0.38736368  0.05975755  0.73077783    -0.71600
O369        O  0.41344240  0.44194496  0.75106940    -0.71600
O370        O  0.46606814  0.45822758  0.64814322    -0.71600
O371        O  0.49213291  0.45223839  0.72515281    -0.71600
O372        O  0.38694557  0.45012016  0.67315397    -0.71700
V373        V  0.43931043  0.07271423  0.70301857     1.35200
V374        V  0.43977469  0.44799594  0.69953640     1.35200
C375        C  0.38450345  0.01256362  0.64873040     0.77700
C376        C  0.49556958  0.50900417  0.75268454     0.77700
C377        C  0.49327943  0.01808593  0.64663948     0.77600
C378        C  0.38544532  0.49765034  0.75497913     0.77600
O379        O  0.38678533  0.20987973  0.65941808    -0.71600
O380        O  0.48808222  0.19965064  0.71956155    -0.71800
O381        O  0.40768297  0.20193618  0.73858644    -0.71600
O382        O  0.46767286  0.20434847  0.63946072    -0.71600
O383        O  0.49157490  0.32172338  0.66643435    -0.71600
O384        O  0.38377445  0.32027719  0.71605389    -0.71600
O385        O  0.46323947  0.31736743  0.74322208    -0.71600
O386        O  0.41338332  0.32768584  0.63820070    -0.71700
V387        V  0.43741976  0.19998096  0.68903406     1.35200
V388        V  0.43802097  0.32477862  0.69107212     1.35200
C389        C  0.38685812  0.26850222  0.63334310     0.77700
C390        C  0.48955341  0.25771870  0.74666517     0.77700
C391        C  0.37981714  0.25808361  0.74060670     0.77600
C392        C  0.49426806  0.26494682  0.63885969     0.77600
C393        C  0.77234679  0.16261757  0.87343185     0.02500
C394        C  0.77641535  0.06993814  0.87800157     0.02500
C395        C  0.74891203  0.02282773  0.90142740    -0.18000
C396        C  0.71774285  0.06420527  0.92324157     0.02500
C397        C  0.71675338  0.16783524  0.92190666     0.02500
C398        C  0.74422196  0.20950183  0.89610178    -0.18000
H399        H  0.74297442  0.28090457  0.89247158     0.04500
H400        H  0.75131736  0.95106490  0.90162844     0.04500
C401        C  0.76529841  0.41836264  0.52399365     0.02500
C402        C  0.76885495  0.32441116  0.52379029     0.02500
C403        C  0.74305505  0.27466102  0.49876846    -0.18000
C404        C  0.71492716  0.31473572  0.97227517     0.02500
C405        C  0.71343315  0.41847489  0.97251449     0.02500
C406        C  0.73864646  0.46228247  0.49938692    -0.18000
H407        H  0.73881908  0.53432355  0.50043835     0.04500
H408        H  0.74493484  0.20296344  0.50001698     0.04500
C409        C  0.29577870  0.26003397  0.56386501    -0.08900
C410        C  0.31151023  0.20683885  0.53317834     0.07300
C411        C  0.35333497  0.18859612  0.53233281    -0.02700
C412        C  0.37735073  0.21078003  0.56522031    -0.07100
C413        C  0.36138832  0.25935396  0.59734663     0.06400
C414        C  0.32023449  0.28573926  0.59598723    -0.02200
Br415      Br  0.29374560  0.34614710  0.63874488    -0.01900
H416        H  0.26346806  0.27417774  0.56477291     0.10300
H417        H  0.40794759  0.18501421  0.56671216     0.08300
Br418      Br  0.37822228  0.13114086  0.98747433    -0.02300
C419        C  0.36163702  0.97099719  0.58035499    -0.08900
C420        C  0.35362785  0.01468876  0.61658690     0.07300
C421        C  0.31642660  0.06027182  0.62083181    -0.02700
C422        C  0.28821273  0.06046920  0.58972382    -0.07100
C423        C  0.29776963  0.02379773  0.55243580     0.06400
C424        C  0.33370593  0.97415585  0.54870528    -0.02200
Br425      Br  0.34584083  0.91111364  0.50092274    -0.01900
H426        H  0.38991833  0.93538434  0.57642302     0.10300
H427        H  0.26072512  0.09937330  0.59301316     0.08300
Br428      Br  0.30396827  0.13445760  0.66536191    -0.02300
C429        C  0.28216161  0.48199883  0.80461552    -0.08900
C430        C  0.29318288  0.45116854  0.84189246     0.07300
C431        C  0.33463831  0.44797911  0.85232013    -0.02700
C432        C  0.36426131  0.47044049  0.82446911    -0.07100
C433        C  0.35333982  0.48920907  0.78529212     0.06400
C434        C  0.31172420  0.49268761  0.77553262    -0.02200
Br435      Br  0.29270431  0.47407083  0.72330941    -0.01900
H436        H  0.25034096  0.48191470  0.79615443     0.10300
H437        H  0.39592571  0.46885543  0.83288019     0.08300
Br438      Br  0.35277200  0.40365291  0.90200992    -0.02300
C439        C  0.30542757  0.27159440  0.75754953    -0.08900
C440        C  0.34506710  0.25040739  0.76947431     0.07300
C441        C  0.35018760  0.22135158  0.80904336    -0.02700
C442        C  0.31885358  0.22956693  0.83706976    -0.07100
C443        C  0.28125004  0.26476230  0.82636339     0.06400
C444        C  0.27354911  0.27790582  0.78542299    -0.02200
Br445      Br  0.22077095  0.30930997  0.76634315    -0.01900
H446        H  0.29940917  0.28549819  0.72661169     0.10300
H447        H  0.32501564  0.21542779  0.86805991     0.08300
Br448      Br  0.39935931  0.17451113  0.82809327    -0.02300
C449        C  0.56283982  0.51206199  0.84552034    -0.08900
C450        C  0.59611300  0.46413277  0.83120105     0.07300
C451        C  0.59956111  0.44791172  0.79015918    -0.02700
C452        C  0.56660592  0.46522296  0.76540640    -0.07100
C453        C  0.53100460  0.50525061  0.78009326     0.06400
C454        C  0.53026509  0.53203288  0.82053389    -0.02200
Br455      Br  0.48418630  0.57969132  0.84661038    -0.01900
H456        H  0.56012111  0.52501347  0.87720376     0.10300
H457        H  0.56819767  0.44261165  0.73484925     0.08300
Br458      Br  0.64780456  0.39905478  0.76684596    -0.02300
C459        C  0.54163878  0.30479245  0.84648175    -0.08900
C460        C  0.58147277  0.27634665  0.83926967     0.07300
C461        C  0.58919667  0.22699378  0.80430040    -0.02700
C462        C  0.55866642  0.21839185  0.77480855    -0.07100
C463        C  0.51996212  0.25729583  0.78001735     0.06400
C464        C  0.51156623  0.29814530  0.81718392    -0.02200
Br465      Br  0.46052356  0.35064175  0.83024683    -0.01900
H466        H  0.53496704  0.34087550  0.87375262     0.10300
H467        H  0.56573560  0.18424034  0.74722830     0.08300
Br468      Br  0.64153197  0.17439518  0.79550758    -0.02300
C469        C  0.56750369  0.26368405  0.61867273    -0.08900
C470        C  0.52627258  0.26804426  0.60790554     0.07300
C471        C  0.51618050  0.26705840  0.56713101    -0.02700
C472        C  0.54512222  0.24180193  0.53888886    -0.07100
C473        C  0.58503701  0.22384020  0.55051233     0.06400
C474        C  0.59716734  0.24427122  0.58979603    -0.02200
Br475      Br  0.65334355  0.24068307  0.60510667    -0.01900
H476        H  0.57634530  0.27047874  0.64962098     0.10300
H477        H  0.53615304  0.23307471  0.50805711     0.08300
Br478      Br  0.46508908  0.30848124  0.54803474    -0.02300
C479        C  0.51337139  0.00704467  0.57524808    -0.08900
C480        C  0.52488703  0.01998940  0.61519499     0.07300
C481        C  0.56635383  0.03453461  0.62401013    -0.02700
C482        C  0.59505813  0.03677127  0.59336801    -0.07100
C483        C  0.58289650  0.03351388  0.55344220     0.06400
C484        C  0.54192847  0.01498599  0.54440780    -0.02200
Br485      Br  0.52192373  0.51157404  0.49038809    -0.01900
H486        H  0.48049082  0.49839011  0.56804134     0.10300
H487        H  0.62648203  0.05163801  0.60056584     0.08300
Br488      Br  0.58565188  0.06154197  0.67638122    -0.02300
C489        C  0.07051237  0.24160992  0.55803378    -0.08900
C490        C  0.11691112  0.26244965  0.57247515     0.07300
C491        C  0.12613417  0.28436428  0.61972152    -0.02700
C492        C  0.08834372  0.28223862  0.65140525    -0.07100
C493        C  0.04206650  0.26071870  0.63580391     0.06400
C494        C  0.03392697  0.24401480  0.58937168    -0.02200
Br495      Br  0.98104870  0.26940401  0.56958824    -0.01900
H496        H  0.06337946  0.24034511  0.52655524     0.10300
H497        H  0.09416295  0.29233570  0.68264336     0.08300
Br498      Br  0.17871581  0.32198868  0.63720066    -0.02300
C499        C  0.78322333  0.19104874  0.80154232    -0.08900
C500        C  0.79409566  0.20985568  0.84105833     0.07300
C501        C  0.82764682  0.26559268  0.84848531    -0.02700
C502        C  0.85265800  0.29160963  0.81693159    -0.07100
C503        C  0.84547959  0.26035057  0.77803561     0.06400
C504        C  0.80917012  0.21310960  0.77022740    -0.02200
Br505      Br  0.79436279  0.17083392  0.71836468    -0.01900
H506        H  0.75607430  0.15236880  0.79533052     0.10300
H507        H  0.87986824  0.32966373  0.82350812     0.08300
Br508      Br  0.84258013  0.30133424  0.90119917    -0.02300
C509        C  0.86561344  0.22908927  0.57312276    -0.08900
C510        C  0.86088939  0.26460451  0.61195126     0.07300
C511        C  0.82222568  0.29930395  0.62106376    -0.02700
C512        C  0.79076386  0.30308528  0.59332771    -0.07100
C513        C  0.79708479  0.28092730  0.55357162     0.06400
C514        C  0.83431047  0.23820222  0.54393111    -0.02200
Br515      Br  0.84366260  0.19216884  0.49173734    -0.01900
H516        H  0.89396941  0.19764659  0.56492619     0.10300
H517        H  0.76226469  0.33382094  0.60191711     0.08300
Br518      Br  0.81034910  0.35158657  0.67000177    -0.02300
C519        C  0.06012095  0.48821746  0.54496463    -0.08900
C520        C  0.08672894  0.42374020  0.56023556     0.07300
C521        C  0.07366879  0.37598530  0.59607607    -0.02700
C522        C  0.05158919  0.43417336  0.62190057    -0.07100
C523        C  0.02245781  0.49388172  0.60725569     0.06400
C524        C  0.02536745  0.51468264  0.56627579    -0.02200
Br525      Br  0.98439538  0.07280267  0.53735648    -0.01900
H526        H  0.06430210  0.51236424  0.51498524     0.10300
H527        H  0.05205088  0.42278866  0.65356502     0.08300
Br528      Br  0.08959673  0.13721027  0.61371770    -0.02300
C529        C  0.81252377  0.54491223  0.60915009    -0.08900
C530        C  0.85293708  0.51803175  0.60288738     0.07300
C531        C  0.86357599  0.47929300  0.56597817    -0.02700
C532        C  0.83442349  0.46321721  0.53743016    -0.07100
C533        C  0.79377197  0.47359205  0.54686167     0.06400
C534        C  0.78240802  0.52060388  0.58151408    -0.02200
Br535      Br  0.72641528  0.54131079  0.59436141    -0.01900
H536        H  0.80378776  0.57594089  0.63704215     0.10300
H537        H  0.84286221  0.42892693  0.51012296     0.08300
Br538      Br  0.91457783  0.42837309  0.55405356    -0.02300
C539        C  0.86993780  0.01504621  0.81929445    -0.08900
C540        C  0.85171155  0.00046103  0.78169798     0.07300
C541        C  0.80913651  0.98062013  0.78167858    -0.02700
C542        C  0.78646365  0.98711957  0.81652464    -0.07100
C543        C  0.80377770  0.01980162  0.85116693     0.06400
C544        C  0.84618448  0.02532524  0.85392704    -0.02200
Br545      Br  0.87118045  0.04160032  0.90504909    -0.01900
H546        H  0.90267986  0.01976089  0.82146950     0.10300
H547        H  0.75361171  0.97970703  0.81529241     0.08300
Br548      Br  0.77402898  0.96156085  0.73802108    -0.02300
C549        C  0.05249851  0.27873404  0.80360116    -0.08900
C550        C  0.00477199  0.25569199  0.80675654     0.07300
C551        C  0.98765902  0.20918415  0.84680466    -0.02700
C552        C  0.01776831  0.18972062  0.88378721    -0.07100
C553        C  0.06565273  0.21633860  0.88018509     0.06400
C554        C  0.08295756  0.26095748  0.83970714    -0.02200
Br555      Br  0.14002987  0.27069044  0.83003422    -0.01900
H556        H  0.06520936  0.29059060  0.77472886     0.10300
H557        H  0.00685014  0.15298143  0.90922746     0.08300
Br558      Br  0.93219946  0.18090317  0.85229465    -0.02300
C559        C  0.08259276  0.98604809  0.81687450    -0.08900
C560        C  0.07402192  0.06072472  0.84192394     0.07300
C561        C  0.04621658  0.12887190  0.82500244    -0.02700
C562        C  0.03038634  0.10147012  0.78742080    -0.07100
C563        C  0.02252427  0.01643901  0.77693030     0.06400
C564        C  0.05843102  0.96818798  0.78222275    -0.02200
Br565      Br  0.08792587  0.42917179  0.73592912    -0.01900
H566        H  0.11004288  0.94855096  0.82153335     0.10300
H567        H  0.03353872  0.14514890  0.76232833     0.08300
Br568      Br  0.02401714  0.35231833  0.86618855    -0.02300
C569        C  0.09462284  0.66100415  0.39729092     0.02500
C570        C  0.09978308  0.57836911  0.37938551     0.02500
C571        C  0.13005063  0.52187759  0.39668516    -0.18000
C572        C  0.15950122  0.55493167  0.42515366     0.02500
C573        C  0.15919044  0.65795463  0.43075555     0.02500
C574        C  0.12390415  0.70123205  0.42012993    -0.18000
H575        H  0.12039889  0.77169130  0.42621277     0.04500
H576        H  0.13159113  0.45298975  0.38749761     0.04500
O577        O  0.90602313  0.57024973  0.24139610    -0.71600
O578        O  0.96505449  0.57952277  0.13902775    -0.71800
O579        O  0.88310509  0.57714450  0.16278307    -0.71600
O580        O  0.98603690  0.57159012  0.21953555    -0.71600
O581        O  0.96218463  0.95226452  0.24261323    -0.71600
O582        O  0.90802115  0.95959353  0.13994607    -0.71600
O583        O  0.98491873  0.96099099  0.16587579    -0.71600
O584        O  0.88080085  0.95175447  0.21807280    -0.71700
V585        V  0.93479207  0.57752015  0.19084519     1.35200
V586        V  0.93371710  0.95240663  0.19133554     1.35200
C587        C  0.87938841  0.51025193  0.24369235     0.77700
C588        C  0.98946242  0.01469177  0.13839311     0.77700
C589        C  0.88292843  0.02117912  0.13591795     0.77600
C590        C  0.99110554  0.50987616  0.24341774     0.77600
O591        O  0.88304810  0.70876263  0.22220128    -0.71600
O592        O  0.99574789  0.69645435  0.18379402    -0.71800
O593        O  0.95695519  0.69578287  0.25805024    -0.71600
O594        O  0.91900729  0.70637442  0.14790763    -0.71600
O595        O  0.89566898  0.82572230  0.17005118    -0.71600
O596        O  0.98812934  0.81283096  0.24117686    -0.71600
O597        O  0.97819795  0.81587107  0.15954615    -0.71600
O598        O  0.90633274  0.82510805  0.25050483    -0.73300
V599        V  0.93887159  0.69914709  0.20296317     1.35200
V600        V  0.94243465  0.82399182  0.20500534     1.35200
C601        C  0.87831342  0.76789470  0.24857607     0.77700
C602        C  0.00502389  0.75838937  0.16141471     0.77700
C603        C  0.98171542  0.75624879  0.26760847     0.77600
C604        C  0.89323968  0.76665939  0.14350786     0.77600
C605        C  0.12283907  0.89395059  0.03560608     0.02500
C606        C  0.13829569  0.80974040  0.04256046     0.02500
C607        C  0.16062987  0.76396990  0.01429113    -0.18000
C608        C  0.17410332  0.80427573  0.47939349     0.02500
C609        C  0.16810974  0.90695752  0.47678779     0.02500
C610        C  0.14067567  0.94465348  0.00493418    -0.18000
H611        H  0.13280325  0.01411205  0.00252070     0.04500
H612        H  0.16515756  0.69341590  0.01862672     0.04500
C613        C  0.68895300  0.74123367  0.44606865    -0.02300
C614        C  0.68899113  0.99121836  0.44642910    -0.02300
C615        C  0.66108054  0.56539215  0.47088743     0.02500
C616        C  0.66190108  0.66937075  0.47079885     0.02500
C617        C  0.63558788  0.71396388  0.99695418    -0.18000
C618        C  0.61051268  0.67010819  0.02344228     0.02500
C619        C  0.60893164  0.57659030  0.02378259     0.02500
C620        C  0.63339588  0.52621050  0.99780187    -0.18000
H621        H  0.63148330  0.45452063  0.99938364     0.04500
H622        H  0.63508033  0.78594847  0.99751812     0.04500
C623        C  0.66399295  0.81360883  0.41895236     0.02500
C624        C  0.66542301  0.91746025  0.41845881     0.02500
C625        C  0.64395540  0.95896426  0.38798059    -0.18000
C626        C  0.62087831  0.91234621  0.36008877     0.02500
C627        C  0.61525083  0.81950171  0.36297700     0.02500
C628        C  0.63738790  0.77192427  0.39130876    -0.18000
H629        H  0.63324201  0.70057734  0.39221510     0.04500
H630        H  0.64488974  0.03074448  0.38577209     0.04500
C631        C  0.26168650  0.90246219  0.36405193     0.02500
C632        C  0.25578652  0.81076613  0.35749589     0.02500
C633        C  0.23172986  0.76241933  0.38421753    -0.18000
C634        C  0.21089603  0.80312735  0.41640139     0.02500
C635        C  0.21179156  0.90704640  0.41799438     0.02500
C636        C  0.23799443  0.94912961  0.39121263    -0.18000
H637        H  0.24157682  0.02068217  0.39248519     0.04500
H638        H  0.23064179  0.69084559  0.38079947     0.04500
C639        C  0.18942386  0.48020251  0.44690514    -0.02300
C640        C  0.22025266  0.55296750  0.46875779     0.02500
C641        C  0.22295714  0.65638213  0.46581696     0.02500
C642        C  0.25599302  0.69831905  0.98431318    -0.18000
C643        C  0.28234511  0.65395095  0.00933917     0.02500
C644        C  0.27715162  0.56243547  0.01679346     0.02500
C645        C  0.24841952  0.51295442  0.99495451    -0.18000
H646        H  0.24650974  0.44224697  0.00032755     0.04500
H647        H  0.25965876  0.76967850  0.98179515     0.04500
C648        C  0.19198309  0.73029644  0.44769951    -0.02300
O649        O  0.41048837  0.57117200  0.15272592    -0.71600
O650        O  0.46809892  0.56761111  0.25353135    -0.71800
O651        O  0.48986442  0.57568057  0.17418269    -0.71600
O652        O  0.38651001  0.56011317  0.23071377    -0.71600
O653        O  0.41425686  0.94167722  0.25096926    -0.71600
O654        O  0.46673672  0.95819361  0.14787173    -0.71600
O655        O  0.49301017  0.95144729  0.22480532    -0.71600
O656        O  0.38755055  0.95041557  0.17306017    -0.71700
V657        V  0.43846146  0.57284499  0.20314322     1.35200
V658        V  0.44051435  0.94784797  0.19930994     1.35200
C659        C  0.38394894  0.51227579  0.14884633     0.77700
C660        C  0.49675155  0.00840411  0.25224216     0.77700
C661        C  0.49250622  0.51828658  0.14685064     0.77600
C662        C  0.38622330  0.99721114  0.25498628     0.77600
O663        O  0.38629453  0.70965523  0.16015173    -0.71600
O664        O  0.48785557  0.69939812  0.21989070    -0.71800
O665        O  0.40748483  0.70201691  0.23924648    -0.71600
O666        O  0.46704263  0.70397161  0.13978095    -0.71600
O667        O  0.49119613  0.82114594  0.16665738    -0.71600
O668        O  0.38365356  0.82044107  0.21651463    -0.71600
O669        O  0.46324086  0.81735318  0.24349998    -0.71600
O670        O  0.41305268  0.82700931  0.13860520    -0.71700
V671        V  0.43705259  0.69979408  0.18955082     1.35200
V672        V  0.43779086  0.82453390  0.19143102     1.35200
C673        C  0.38645150  0.76793972  0.13391981     0.77700
C674        C  0.48944550  0.75748971  0.24697764     0.77700
C675        C  0.37969698  0.75842929  0.24117838     0.77600
C676        C  0.49366084  0.76447721  0.13903810     0.77600
C677        C  0.76876332  0.66487564  0.37035819     0.02500
C678        C  0.77163356  0.57163242  0.37256966     0.02500
C679        C  0.74583882  0.52357269  0.39749199    -0.18000
C680        C  0.71663749  0.56455909  0.42207721     0.02500
C681        C  0.71590158  0.66825442  0.42159793     0.02500
C682        C  0.74244821  0.71088196  0.39523022    -0.18000
H683        H  0.74192725  0.78263797  0.39295194     0.04500
H684        H  0.74800249  0.45177874  0.39684339     0.04500
C685        C  0.76574214  0.91753639  0.02428241     0.02500
C686        C  0.76837464  0.82327826  0.02430904     0.02500
C687        C  0.74238083  0.77397491  0.99935306    -0.18000
C688        C  0.71459794  0.81441312  0.47276452     0.02500
C689        C  0.71331554  0.91815119  0.47319286     0.02500
C690        C  0.73884754  0.96169195  0.99996845    -0.18000
H691        H  0.73936462  0.03371371  0.00083191     0.04500
H692        H  0.74385708  0.70223928  0.00072616     0.04500
C693        C  0.29536958  0.75997429  0.06451108    -0.08900
C694        C  0.31114925  0.70738144  0.03360023     0.07300
C695        C  0.35298775  0.68945165  0.03266664    -0.02700
C696        C  0.37690495  0.71039815  0.06576166    -0.07100
C697        C  0.36097063  0.75868039  0.09796901     0.06400
C698        C  0.31991069  0.78547631  0.09663542    -0.02200
Br699      Br  0.29396128  0.84661879  0.13946993    -0.01900
H700        H  0.26306812  0.77413090  0.06547116     0.10300
H701        H  0.40741734  0.68426804  0.06724450     0.08300
Br702      Br  0.37804371  0.63487817  0.48718968    -0.02300
C703        C  0.36188697  0.47147690  0.08043519    -0.08900
C704        C  0.35332460  0.51422938  0.11666521     0.07300
C705        C  0.31605282  0.55934787  0.12077165    -0.02700
C706        C  0.28809986  0.55966414  0.08944071    -0.07100
C707        C  0.29811732  0.52374552  0.05208823     0.06400
C708        C  0.33436612  0.47488042  0.04854564    -0.02200
Br709      Br  0.34798504  0.41288957  0.00098514    -0.01900
H710        H  0.39036503  0.43651611  0.07666789     0.10300
H711        H  0.26048268  0.59815584  0.09264936     0.08300
Br712      Br  0.30346342  0.63287762  0.16547211    -0.02300
C713        C  0.28249042  0.98207710  0.30422350    -0.08900
C714        C  0.29311962  0.95099258  0.34158867     0.07300
C715        C  0.33455522  0.94658855  0.35212068    -0.02700
C716        C  0.36441944  0.96863817  0.32440421    -0.07100
C717        C  0.35386727  0.98831101  0.28520981     0.06400
C718        C  0.31230671  0.99267370  0.27532252    -0.02200
Br719      Br  0.29362886  0.97537259  0.22296280    -0.01900
H720        H  0.25073202  0.98246493  0.29554479     0.10300
H721        H  0.39598259  0.96657238  0.33302209     0.08300
Br722      Br  0.35241145  0.90055151  0.40165062    -0.02300
C723        C  0.30527428  0.77169081  0.25739273    -0.08900
C724        C  0.34480224  0.75095325  0.26980586     0.07300
C725        C  0.34960878  0.72274114  0.30953924    -0.02700
C726        C  0.31783243  0.73011548  0.33706985    -0.07100
C727        C  0.28033957  0.76501585  0.32591411     0.06400
C728        C  0.27308945  0.77810595  0.28488127    -0.02200
Br729      Br  0.22058865  0.80909700  0.26498563    -0.01900
H730        H  0.29959619  0.78541427  0.22637366     0.10300
H731        H  0.32365185  0.71636807  0.36816298     0.08300
Br732      Br  0.39905595  0.68021933  0.32989982    -0.02300
C733        C  0.56442933  0.01300670  0.34484622    -0.08900
C734        C  0.59734322  0.96367251  0.33083495     0.07300
C735        C  0.60082247  0.94618325  0.28996302    -0.02700
C736        C  0.56781546  0.96292856  0.26508896    -0.07100
C737        C  0.53240689  0.00461599  0.27951821     0.06400
C738        C  0.53206589  0.03341784  0.31972732    -0.02200
Br739      Br  0.48702217  0.08611945  0.34555217    -0.01900
H740        H  0.56188003  0.02730948  0.37643301     0.10300
H741        H  0.56922980  0.93886006  0.23474110     0.08300
Br742      Br  0.64936447  0.89605833  0.26764910    -0.02300
C743        C  0.54213371  0.80536374  0.34648737    -0.08900
C744        C  0.58181258  0.77600454  0.33924597     0.07300
C745        C  0.58904194  0.72534525  0.30446159    -0.02700
C746        C  0.55828035  0.71664434  0.27521739    -0.07100
C747        C  0.51987264  0.75679071  0.28034037     0.06400
C748        C  0.51192167  0.79883852  0.31732540    -0.02200
Br749      Br  0.46172941  0.85525080  0.32996036    -0.01900
H750        H  0.53577616  0.84244577  0.37356454     0.10300
H751        H  0.56500253  0.68154664  0.24779967     0.08300
Br752      Br  0.64076562  0.67043700  0.29525323    -0.02300
C753        C  0.56670928  0.76342123  0.11874731    -0.08900
C754        C  0.52551657  0.76754263  0.10798414     0.07300
C755        C  0.51539771  0.76634169  0.06721994    -0.02700
C756        C  0.54439568  0.74128326  0.03897215    -0.07100
C757        C  0.58431568  0.72324870  0.05062483     0.06400
C758        C  0.59636141  0.74359522  0.08996203    -0.02200
Br759      Br  0.65230828  0.73852676  0.10579364    -0.01900
H760        H  0.57552473  0.77035109  0.14969946     0.10300
H761        H  0.53544735  0.73258707  0.00813351     0.08300
Br762      Br  0.46418937  0.80720485  0.04818310    -0.02300
C763        C  0.51229144  0.50817807  0.07532949    -0.08900
C764        C  0.52395939  0.52056041  0.11526225     0.07300
C765        C  0.56543798  0.53490824  0.12395572    -0.02700
C766        C  0.59413786  0.53605365  0.09327140    -0.07100
C767        C  0.58195304  0.53301108  0.05332578     0.06400
C768        C  0.54079523  0.51585956  0.04440350    -0.02200
Br769      Br  0.52346201  0.00900838  0.99028754    -0.01900
H770        H  0.48163750  0.99655031  0.06787179     0.10300
H771        H  0.62559999  0.55043596  0.10043490     0.08300
Br772      Br  0.58460169  0.56448889  0.17611862    -0.02300
C773        C  0.07057848  0.74102640  0.05786272    -0.08900
C774        C  0.11679190  0.76223573  0.07247733     0.07300
C775        C  0.12588117  0.78386352  0.11975516    -0.02700
C776        C  0.08791408  0.78116620  0.15137924    -0.07100
C777        C  0.04164561  0.75945245  0.13540557     0.06400
C778        C  0.03389465  0.74277718  0.08895260    -0.02200
Br779      Br  0.98108992  0.76593841  0.06875975    -0.01900
H780        H  0.06359558  0.73956884  0.02635430     0.10300
H781        H  0.09350742  0.79165096  0.18264492     0.08300
Br782      Br  0.17872716  0.82017595  0.13706423    -0.02300
C783        C  0.77956272  0.70562199  0.29963227    -0.08900
C784        C  0.79142620  0.71482233  0.33946592     0.07300
C785        C  0.82686871  0.76335907  0.34839637    -0.02700
C786        C  0.85318205  0.78830844  0.31768867    -0.07100
C787        C  0.84475278  0.76464396  0.27801389     0.06400
C788        C  0.80602313  0.72926447  0.26895309    -0.02200
Br789      Br  0.78675598  0.71311195  0.21589064    -0.01900
H790        H  0.75072687  0.67433290  0.29239131     0.10300
H791        H  0.88159693  0.82096930  0.32518142     0.08300
Br792      Br  0.84153041  0.79273001  0.40186882    -0.02300
C793        C  0.86347042  0.72472118  0.07459693    -0.08900
C794        C  0.85954049  0.76515610  0.11248147     0.07300
C795        C  0.82175310  0.80510341  0.12069979    -0.02700
C796        C  0.78963897  0.80448521  0.09376913    -0.07100
C797        C  0.79562555  0.77884686  0.05445492     0.06400
C798        C  0.83237117  0.73381125  0.04530492    -0.02200
Br799      Br  0.84205078  0.68757103  0.99330322    -0.01900
H800        H  0.89143350  0.69101922  0.06689281     0.10300
H801        H  0.76175350  0.83869047  0.10167039     0.08300
Br802      Br  0.81365484  0.88111926  0.16362844    -0.02300
C803        C  0.05962290  0.98859027  0.04576609    -0.08900
C804        C  0.08624360  0.92344053  0.06049603     0.07300
C805        C  0.07328111  0.87522096  0.09622830    -0.02700
C806        C  0.05139061  0.93308164  0.12251405    -0.07100
C807        C  0.02234332  0.99342317  0.10846298     0.06400
C808        C  0.02507568  0.01509112  0.06754831    -0.02200
Br809      Br  0.98471968  0.57027681  0.03519576    -0.01900
H810        H  0.06368706  0.01355520  0.01591389     0.10300
H811        H  0.05183084  0.92099733  0.15410298     0.08300
Br812      Br  0.08964876  0.63648616  0.11355430    -0.02300
C813        C  0.81498607  0.05374599  0.10623475    -0.08900
C814        C  0.85490359  0.02219673  0.10160939     0.07300
C815        C  0.86522138  0.97780713  0.06588628    -0.02700
C816        C  0.83586737  0.95798034  0.03786306    -0.07100
C817        C  0.79524122  0.97246842  0.04652937     0.06400
C818        C  0.78461852  0.02682980  0.07931029    -0.02200
Br819      Br  0.72925454  0.05529262  0.09144371    -0.01900
H820        H  0.80646946  0.08960543  0.13299954     0.10300
H821        H  0.84407888  0.91935267  0.01167938     0.08300
Br822      Br  0.91626207  0.92605545  0.05522633    -0.02300
C823        C  0.86660570  0.51292756  0.31663699    -0.08900
C824        C  0.85050404  0.50523002  0.27793983     0.07300
C825        C  0.80767860  0.49677818  0.27404362    -0.02700
C826        C  0.78262061  0.50174355  0.30746609    -0.07100
C827        C  0.79868790  0.52381278  0.34457159     0.06400
C828        C  0.84103735  0.52372521  0.34980936    -0.02200
Br829      Br  0.86420886  0.54089579  0.40170970    -0.01900
H830        H  0.89921009  0.51266472  0.32082806     0.10300
H831        H  0.74986257  0.50221390  0.30350189     0.08300
Br832      Br  0.77851887  0.50055927  0.22551715    -0.02300
C833        C  0.05286959  0.77957031  0.30217962    -0.08900
C834        C  0.00524047  0.75500471  0.30524250     0.07300
C835        C  0.98829877  0.70759280  0.34507591    -0.02700
C836        C  0.01840546  0.68883502  0.38211754    -0.07100
C837        C  0.06618834  0.71677334  0.37871297     0.06400
C838        C  0.08339110  0.76211251  0.33832255    -0.02200
Br839      Br  0.14042630  0.76968097  0.32802457    -0.01900
H840        H  0.06550622  0.79182814  0.27340049     0.10300
H841        H  0.00771165  0.65093504  0.40728112     0.08300
Br842      Br  0.93341463  0.67220228  0.34907024    -0.02300
C843        C  0.08219543  0.48434162  0.31681716    -0.08900
C844        C  0.07437240  0.56055254  0.34104416     0.07300
C845        C  0.04741476  0.62933633  0.32328611    -0.02700
C846        C  0.03284051  0.60253214  0.28505563    -0.07100
C847        C  0.02357151  0.51762285  0.27532398     0.06400
C848        C  0.05832487  0.46646884  0.28199632    -0.02200
Br849      Br  0.08710499  0.93225895  0.23526317    -0.01900
H850        H  0.10912063  0.44560847  0.32211376     0.10300
H851        H  0.03469189  0.64687413  0.26011619     0.08300
Br852      Br  0.02383387  0.85170638  0.36480348    -0.02300
C853        C  0.09462284  0.66100431  0.89729115     0.02500
C854        C  0.09978312  0.57836939  0.87938568     0.02500
C855        C  0.13005065  0.52187781  0.89668530    -0.18000
C856        C  0.15950128  0.55493190  0.92515372     0.02500
C857        C  0.15919047  0.65795481  0.93075569     0.02500
C858        C  0.12390414  0.70123218  0.92013016    -0.18000
H859        H  0.12039888  0.77169153  0.92621301     0.04500
H860        H  0.13159108  0.45298986  0.88749784     0.04500
O861        O  0.90602338  0.57025013  0.74139623    -0.71600
O862        O  0.96505467  0.57952309  0.63902784    -0.71800
O863        O  0.88310520  0.57714461  0.66278312    -0.71600
O864        O  0.98603702  0.57159033  0.71953556    -0.71600
O865        O  0.96218464  0.95226458  0.74261321    -0.71600
O866        O  0.90802126  0.95959366  0.63994603    -0.71600
O867        O  0.98491879  0.96099118  0.66587580    -0.71600
O868        O  0.88080083  0.95175464  0.71807271    -0.71700
V869        V  0.93479219  0.57752039  0.69084524     1.35200
V870        V  0.93371714  0.95240678  0.69133551     1.35200
C871        C  0.87938874  0.51025219  0.74369253     0.77700
C872        C  0.98946249  0.01469198  0.63839314     0.77700
C873        C  0.88292858  0.02117928  0.63591786     0.77600
C874        C  0.99110570  0.50987639  0.74341775     0.77600
O875        O  0.88304827  0.70876279  0.72220135    -0.71600
O876        O  0.99574813  0.69645470  0.68379426    -0.71800
O877        O  0.95695533  0.69578304  0.75805046    -0.71600
O878        O  0.91900747  0.70637466  0.64790774    -0.71600
O879        O  0.89566907  0.82572243  0.67005132    -0.71600
O880        O  0.98812942  0.81283118  0.74117710    -0.71600
O881        O  0.97819806  0.81587129  0.65954642    -0.71600
O882        O  0.90633283  0.82510828  0.75050493    -0.73300
V883        V  0.93887178  0.69914728  0.70296333     1.35200
V884        V  0.94243475  0.82399200  0.70500553     1.35200
C885        C  0.87831357  0.76789483  0.74857616     0.77700
C886        C  0.00502407  0.75838981  0.66141500     0.77700
C887        C  0.98171551  0.75624903  0.76760870     0.77600
C888        C  0.89323980  0.76665956  0.64350797     0.77600
C889        C  0.12283911  0.89395055  0.53560607     0.02500
C890        C  0.13829573  0.80974035  0.54256042     0.02500
C891        C  0.16062987  0.76396970  0.51429105    -0.18000
C892        C  0.17410340  0.80427589  0.97939360     0.02500
C893        C  0.16810978  0.90695765  0.97678788     0.02500
C894        C  0.14067573  0.94465312  0.50493415    -0.18000
H895        H  0.13280311  0.01411338  0.50252062     0.04500
H896        H  0.16515748  0.69341632  0.51862658     0.04500
C897        C  0.68895300  0.74123348  0.94606862    -0.02300
C898        C  0.68899115  0.99121810  0.94642908    -0.02300
C899        C  0.66108058  0.56539196  0.97088739     0.02500
C900        C  0.66190111  0.66937056  0.97079888     0.02500
C901        C  0.63558775  0.71396416  0.49695400    -0.18000
C902        C  0.61051240  0.67010853  0.52344201     0.02500
C903        C  0.60893144  0.57659065  0.52378249     0.02500
C904        C  0.63339579  0.52621076  0.49780190    -0.18000
H905        H  0.63148322  0.45452095  0.49938377     0.04500
H906        H  0.63508024  0.78594852  0.49751792     0.04500
C907        C  0.66399292  0.81360856  0.91895231     0.02500
C908        C  0.66542304  0.91745995  0.91845878     0.02500
C909        C  0.64395546  0.95896414  0.88798058    -0.18000
C910        C  0.62087827  0.91234613  0.86008877     0.02500
C911        C  0.61525071  0.81950166  0.86297703     0.02500
C912        C  0.63738783  0.77192381  0.89130870    -0.18000
H913        H  0.63324204  0.70057842  0.89221496     0.04500
H914        H  0.64488982  0.03074410  0.88577213     0.04500
C915        C  0.26168652  0.90246234  0.86405194     0.02500
C916        C  0.25578653  0.81076628  0.85749588     0.02500
C917        C  0.23172976  0.76241951  0.88421747    -0.18000
C918        C  0.21089606  0.80312750  0.91640145     0.02500
C919        C  0.21179160  0.90704652  0.91799444     0.02500
C920        C  0.23799435  0.94912976  0.89121256    -0.18000
H921        H  0.24157661  0.02068237  0.89248502     0.04500
H922        H  0.23064162  0.69084584  0.88079937     0.04500
C923        C  0.18942385  0.48020271  0.94690522    -0.02300
C924        C  0.22025269  0.55296770  0.96875787     0.02500
C925        C  0.22295720  0.65638231  0.96581703     0.02500
C926        C  0.25599301  0.69831884  0.48431304    -0.18000
C927        C  0.28234520  0.65395062  0.50933892     0.02500
C928        C  0.27715173  0.56243510  0.51679322     0.02500
C929        C  0.24841948  0.51295427  0.49495443    -0.18000
H930        H  0.24650963  0.44224615  0.50032761     0.04500
H931        H  0.25965871  0.76967817  0.48179507     0.04500
C932        C  0.19198315  0.73029661  0.94769960    -0.02300
O933        O  0.41048825  0.57117202  0.65272588    -0.71600
O934        O  0.46809878  0.56761144  0.75353135    -0.71800
O935        O  0.48986428  0.57568080  0.67418255    -0.71600
O936        O  0.38650993  0.56011321  0.73071370    -0.71600
O937        O  0.41425681  0.94167730  0.75096924    -0.71600
O938        O  0.46673662  0.95819370  0.64787167    -0.71600
O939        O  0.49301020  0.95144735  0.72480526    -0.71600
O940        O  0.38755051  0.95041554  0.67306016    -0.71700
V941        V  0.43846136  0.57284513  0.70314315     1.35200
V942        V  0.44051432  0.94784801  0.69930991     1.35200
C943        C  0.38394885  0.51227573  0.64884629     0.77700
C944        C  0.49675160  0.00840417  0.75224210     0.77700
C945        C  0.49250608  0.51828673  0.64685055     0.77600
C946        C  0.38622327  0.99721125  0.75498626     0.77600
O947        O  0.38629433  0.70965519  0.66015171    -0.71600
O948        O  0.48785550  0.69939825  0.71989056    -0.71800
O949        O  0.40748482  0.70201675  0.73924644    -0.71600
O950        O  0.46704241  0.70397178  0.63978085    -0.71600
O951        O  0.49119594  0.82114599  0.66665730    -0.71600
O952        O  0.38365353  0.82044090  0.71651463    -0.71600
O953        O  0.46324075  0.81735316  0.74349993    -0.71600
O954        O  0.41305255  0.82700915  0.63860515    -0.71700
V955        V  0.43705245  0.69979407  0.68955076     1.35200
V956        V  0.43779072  0.82453382  0.69143098     1.35200
C957        C  0.38645136  0.76793962  0.63391975     0.77700
C958        C  0.48944545  0.75748976  0.74697753     0.77700
C959        C  0.37969699  0.75842912  0.74117837     0.77600
C960        C  0.49366062  0.76447737  0.63903797     0.77600
C961        C  0.76876346  0.66487576  0.87035825     0.02500
C962        C  0.77163371  0.57163255  0.87256968     0.02500
C963        C  0.74583885  0.52357265  0.89749185    -0.18000
C964        C  0.71663752  0.56455893  0.92207713     0.02500
C965        C  0.71590161  0.66825424  0.92159790     0.02500
C966        C  0.74244824  0.71088219  0.89523024    -0.18000
H967        H  0.74192721  0.78263649  0.89295201     0.04500
H968        H  0.74800247  0.45177846  0.89684311     0.04500
C969        C  0.76574226  0.91753640  0.52428232     0.02500
C970        C  0.76837473  0.82327829  0.52430903     0.02500
C971        C  0.74238091  0.77397477  0.49935303    -0.18000
C972        C  0.71459796  0.81441303  0.97276448     0.02500
C973        C  0.71331559  0.91815111  0.97319284     0.02500
C974        C  0.73884759  0.96169183  0.49996837    -0.18000
H975        H  0.73936472  0.03371421  0.50083177     0.04500
H976        H  0.74385717  0.70224034  0.50072607     0.04500
C977        C  0.29536936  0.75997376  0.56451102    -0.08900
C978        C  0.31114921  0.70738103  0.53360015     0.07300
C979        C  0.35298771  0.68945138  0.53266660    -0.02700
C980        C  0.37690479  0.71039826  0.56576158    -0.07100
C981        C  0.36097056  0.75868038  0.59796891     0.06400
C982        C  0.31991057  0.78547588  0.59663536    -0.02200
Br983      Br  0.29396133  0.84661833  0.63946990    -0.01900
H984        H  0.26306862  0.77412992  0.56547104     0.10300
H985        H  0.40741804  0.68426770  0.56724447     0.08300
Br986      Br  0.37804377  0.63487769  0.98718993    -0.02300
C987        C  0.36188704  0.47147700  0.58043505    -0.08900
C988        C  0.35332459  0.51422914  0.61666509     0.07300
C989        C  0.31605282  0.55934767  0.62077139    -0.02700
C990        C  0.28809990  0.55966377  0.58944044    -0.07100
C991        C  0.29811740  0.52374517  0.55208800     0.06400
C992        C  0.33436629  0.47488040  0.54854546    -0.02200
Br993      Br  0.34798542  0.41288972  0.50098507    -0.01900
H994        H  0.39036540  0.43651601  0.57666774     0.10300
H995        H  0.26048265  0.59815536  0.59264908     0.08300
Br996      Br  0.30346319  0.63287713  0.66547181    -0.02300
C997        C  0.28249042  0.98207709  0.80422347    -0.08900
C998        C  0.29311964  0.95099276  0.84158865     0.07300
C999        C  0.33455525  0.94658894  0.85212062    -0.02700
C1000       C  0.36441954  0.96863878  0.82440421    -0.07100
C1001       C  0.35386725  0.98831114  0.78520978     0.06400
C1002       C  0.31230671  0.99267334  0.77532246    -0.02200
Br1003     Br  0.29362893  0.97537144  0.72296276    -0.01900
H1004       H  0.25073196  0.98246472  0.79554473     0.10300
H1005       H  0.39598217  0.96657350  0.83302194     0.08300
Br1006     Br  0.35241154  0.90055295  0.90165062    -0.02300
C1007       C  0.30527429  0.77169035  0.75739266    -0.08900
C1008       C  0.34480228  0.75095323  0.76980583     0.07300
C1009       C  0.34960880  0.72274136  0.80953921    -0.02700
C1010       C  0.31783250  0.73011575  0.83706986    -0.07100
C1011       C  0.28033961  0.76501597  0.82591409     0.06400
C1012       C  0.27308943  0.77810558  0.78488122    -0.02200
Br1013     Br  0.22058846  0.80909584  0.76498560    -0.01900
H1014       H  0.29959619  0.78541329  0.72637353     0.10300
H1015       H  0.32365194  0.71636859  0.86816286     0.08300
Br1016     Br  0.39905579  0.68021946  0.82989979    -0.02300
C1017       C  0.56442923  0.01300655  0.84484620    -0.08900
C1018       C  0.59734316  0.96367251  0.83083499     0.07300
C1019       C  0.60082251  0.94618344  0.78996306    -0.02700
C1020       C  0.56781553  0.96292867  0.76508896    -0.07100
C1021       C  0.53240690  0.00461587  0.77951819     0.06400
C1022       C  0.53206582  0.03341772  0.81972731    -0.02200
Br1023     Br  0.48702196  0.08611895  0.84555212    -0.01900
H1024       H  0.56187986  0.02730946  0.87643329     0.10300
H1025       H  0.56922997  0.93886029  0.73474100     0.08300
Br1026     Br  0.64936455  0.89605850  0.76764935    -0.02300
C1027       C  0.54213355  0.80536370  0.84648731    -0.08900
C1028       C  0.58181247  0.77600447  0.83924595     0.07300
C1029       C  0.58904194  0.72534521  0.80446158    -0.02700
C1030       C  0.55828034  0.71664408  0.77521736    -0.07100
C1031       C  0.51987257  0.75679047  0.78034030     0.06400
C1032       C  0.51192150  0.79883817  0.81732535    -0.02200
Br1033     Br  0.46172922  0.85525090  0.82996030    -0.01900
H1034       H  0.53577599  0.84244567  0.87356422     0.10300
H1035       H  0.56500257  0.68154633  0.74779970     0.08300
Br1036     Br  0.64076568  0.67043655  0.79525348    -0.02300
C1037       C  0.56670905  0.76342136  0.61874694    -0.08900
C1038       C  0.52551634  0.76754290  0.60798394     0.07300
C1039       C  0.51539751  0.76634235  0.56721969    -0.02700
C1040       C  0.54439545  0.74128397  0.53897185    -0.07100
C1041       C  0.58431542  0.72324910  0.55062453     0.06400
C1042       C  0.59636117  0.74359542  0.58996172    -0.02200
Br1043     Br  0.65230805  0.73852692  0.60579330    -0.01900
H1044       H  0.57552473  0.77035125  0.64969970     0.10300
H1045       H  0.53544711  0.73258797  0.50813340     0.08300
Br1046     Br  0.46418914  0.80720504  0.54818277    -0.02300
C1047       C  0.51229123  0.50817824  0.57532941    -0.08900
C1048       C  0.52395920  0.52056057  0.61526216     0.07300
C1049       C  0.56543777  0.53490840  0.62395565    -0.02700
C1050       C  0.59413762  0.53605390  0.59327133    -0.07100
C1051       C  0.58195280  0.53301144  0.55332569     0.06400
C1052       C  0.54079499  0.51585973  0.54440338    -0.02200
Br1053     Br  0.52346226  0.00900821  0.49028758    -0.01900
H1054       H  0.48163747  0.99655041  0.56787158     0.10300
H1055       H  0.62559988  0.55043635  0.60043488     0.08300
Br1056     Br  0.58460146  0.56448907  0.67611858    -0.02300
C1057       C  0.07057846  0.74102663  0.55786290    -0.08900
C1058       C  0.11679192  0.76223598  0.57247736     0.07300
C1059       C  0.12588128  0.78386408  0.61975520    -0.02700
C1060       C  0.08791422  0.78116681  0.65137920    -0.07100
C1061       C  0.04164574  0.75945302  0.63540582     0.06400
C1062       C  0.03389469  0.74277753  0.58895282    -0.02200
Br1063     Br  0.98108998  0.76593858  0.56876001    -0.01900
H1064       H  0.06359541  0.73956892  0.52635428     0.10300
H1065       H  0.09350783  0.79165223  0.68264598     0.08300
Br1066     Br  0.17872725  0.82017678  0.63706418    -0.02300
C1067       C  0.77956289  0.70562216  0.79963226    -0.08900
C1068       C  0.79142631  0.71482255  0.83946598     0.07300
C1069       C  0.82686881  0.76335933  0.84839650    -0.02700
C1070       C  0.85318218  0.78830860  0.81768880    -0.07100
C1071       C  0.84475297  0.76464403  0.77801398     0.06400
C1072       C  0.80602334  0.72926459  0.76895311    -0.02200
Br1073     Br  0.78675607  0.71311273  0.71589062    -0.01900
H1074       H  0.75072709  0.67433327  0.79239123     0.10300
H1075       H  0.88159705  0.82096955  0.82518157     0.08300
Br1076     Br  0.84153047  0.79273080  0.90186902    -0.02300
C1077       C  0.86347050  0.72472128  0.57459697    -0.08900
C1078       C  0.85954059  0.76515624  0.61248152     0.07300
C1079       C  0.82175320  0.80510356  0.62069982    -0.02700
C1080       C  0.78963903  0.80448539  0.59376917    -0.07100
C1081       C  0.79562562  0.77884691  0.55445496     0.06400
C1082       C  0.83237119  0.73381110  0.54530500    -0.02200
Br1083     Br  0.84205070  0.68757085  0.49330326    -0.01900
H1084       H  0.89143359  0.69101945  0.56689284     0.10300
H1085       H  0.76175377  0.83869047  0.60167037     0.08300
Br1086     Br  0.81365492  0.88111949  0.66362841    -0.02300
C1087       C  0.05962300  0.98859039  0.54576606    -0.08900
C1088       C  0.08624361  0.92344058  0.56049602     0.07300
C1089       C  0.07328117  0.87522118  0.59622836    -0.02700
C1090       C  0.05139068  0.93308199  0.62251422    -0.07100
C1091       C  0.02234341  0.99342346  0.60846301     0.06400
C1092       C  0.02507587  0.01509155  0.56754839    -0.02200
Br1093     Br  0.98472005  0.57027699  0.53519601    -0.01900
H1094       H  0.06368715  0.01355512  0.51591398     0.10300
H1095       H  0.05183088  0.92099809  0.65410240     0.08300
Br1096     Br  0.08964885  0.63648673  0.61355454    -0.02300
C1097       C  0.81498625  0.05374607  0.60623441    -0.08900
C1098       C  0.85490374  0.02219690  0.60160929     0.07300
C1099       C  0.86522162  0.97780718  0.56588620    -0.02700
C1100       C  0.83586760  0.95798001  0.53786302    -0.07100
C1101       C  0.79524142  0.97246849  0.54652918     0.06400
C1102       C  0.78461869  0.02683022  0.57930999    -0.02200
Br1103     Br  0.72925463  0.05529345  0.59144308    -0.01900
H1104       H  0.80646929  0.08960701  0.63300013     0.10300
H1105       H  0.84407911  0.91935220  0.51167959     0.08300
Br1106     Br  0.91626243  0.92605567  0.55522630    -0.02300
C1107       C  0.86660589  0.51292772  0.81663707    -0.08900
C1108       C  0.85050428  0.50523023  0.77793992     0.07300
C1109       C  0.80767881  0.49677839  0.77404362    -0.02700
C1110       C  0.78262065  0.50174382  0.80746606    -0.07100
C1111       C  0.79868806  0.52381302  0.84457158     0.06400
C1112       C  0.84103749  0.52372539  0.84980937    -0.02200
Br1113     Br  0.86420894  0.54089596  0.90170967    -0.01900
H1114       H  0.89921033  0.51266484  0.82082819     0.10300
H1115       H  0.74986330  0.50221428  0.80350191     0.08300
Br1116     Br  0.77851898  0.50055948  0.72551713    -0.02300
C1117       C  0.05286963  0.77957067  0.80217995    -0.08900
C1118       C  0.00524059  0.75500503  0.80524268     0.07300
C1119       C  0.98829886  0.70759300  0.84507602    -0.02700
C1120       C  0.01840551  0.68883521  0.88211760    -0.07100
C1121       C  0.06618835  0.71677351  0.87871316     0.06400
C1122       C  0.08339116  0.76211284  0.83832277    -0.02200
Br1123     Br  0.14042638  0.76968116  0.82802482    -0.01900
H1124       H  0.06550663  0.79182919  0.77339997     0.10300
H1125       H  0.00771151  0.65093467  0.90728143     0.08300
Br1126     Br  0.93341470  0.67220244  0.84907021    -0.02300
C1127       C  0.08219542  0.48434193  0.81681744    -0.08900
C1128       C  0.07437248  0.56055277  0.84104435     0.07300
C1129       C  0.04741490  0.62933687  0.82328629    -0.02700
C1130       C  0.03284076  0.60253259  0.78505563    -0.07100
C1131       C  0.02357172  0.51762322  0.77532403     0.06400
C1132       C  0.05832502  0.46646908  0.78199657    -0.02200
Br1133     Br  0.08710479  0.93225974  0.73526313    -0.01900
H1134       H  0.10912108  0.44560779  0.82211426     0.10300
H1135       H  0.03469203  0.64687399  0.76011658     0.08300
Br1136     Br  0.02383393  0.85170657  0.86480372    -0.02300
loop_ 
_geom_bond_atom_site_label_1 
_geom_bond_atom_site_label_2 
_geom_bond_distance 
_geom_bond_site_symmetry_2 
_ccdc_geom_bond_type 
C1            C2   1.390       .  A
C1            C6   1.368       .  A
C1          C269   1.407       .  S
C2            C3   1.435       .  A
C2          C276   1.553       .  S
C3            C4   1.443       .  A
C3            H8   1.082   1_545  S
C4            C5   1.561       .  A
C4           C71   1.667   1_545  S
C5            C6   1.380       .  A
C5           C80   1.629       .  S
C6            H7   1.086       .  S
O9           V17   1.958       .  S
O9           C19   1.262       .  A
O10          V17   2.009       .  S
O10         C588   1.261       .  A
O11          V17   1.942       .  S
O11         C589   1.256       .  A
O12          V17   1.938       .  S
O12          C22   1.247       .  A
O13          V18   1.959       .  S
O13         C590   1.257       .  A
O14          V18   1.921       .  S
O14          C21   1.250       .  A
O15          V18   1.886       .  S
O15          C20   1.240       .  A
O16          V18   1.948       .  S
O16         C587   1.255       .  A
V17         V586   1.882   1_545  T
V18         V585   1.884       .  T
C19         C256   1.511       .  S
C19         O584   1.257   1_545  A
C20         C239   1.506   1_655  S
C20         O578   1.261       .  A
C21         C246   1.466       .  S
C21         O579   1.254       .  A
C22         C279   1.514   1_655  S
C22         O581   1.258   1_545  A
O23          V31   1.939       .  S
O23          C33   1.259       .  A
O24          V31   1.979       .  S
O24          C34   1.244   1_655  A
O25          V31   1.949       .  S
O25          C35   1.259       .  A
O26          V31   1.971       .  S
O26          C36   1.254       .  A
O27          V32   1.938       .  S
O27          C36   1.257       .  A
O28          V32   1.942       .  S
O28          C35   1.253       .  A
O29          V32   1.924       .  S
O29          C34   1.238   1_655  A
O30          V32   1.933       .  S
O30          C33   1.260       .  A
V31          V32   1.886       .  T
C33         C219   1.481       .  S
C34         C209   1.488       .  S
C35         C266   1.485   1_655  S
C36         C226   1.525       .  S
C37          C38   1.389       .  A
C37          C42   1.413       .  A
C37         C236   1.526       .  S
C38          C39   1.381       .  A
C38         C206   1.426       .  S
C39         C324   1.397   1_554  A
C39          H44   1.084       .  S
C40          C41   1.564       .  A
C40         C323   1.397       .  A
C40          C80   1.644       .  S
C41         C326   1.421       .  A
C41         C639   1.648       .  S
C42         C325   1.421   1_554  A
C42          H43   1.082       .  S
C45          C48   1.632       .  S
C45          C55   1.651       .  S
C45         C113   1.633       .  S
C45         C120   1.644       .  S
C46          C56   1.639       .  S
C46         C121   1.637       .  S
C46         C615   1.659       .  S
C46         C680   1.650       .  S
C47          C48   1.567       .  A
C47         C336   1.412       .  A
C47         C614   1.656   1_545  S
C48         C333   1.401       .  A
C49          C50   1.384   1_556  A
C49         C332   1.401       .  A
C49          H54   1.085       .  S
C50          C51   1.409       .  A
C50         C189   1.485       .  S
C51          C52   1.404   1_554  A
C51         C199   1.485       .  S
C52         C331   1.412       .  A
C52          H53   1.083   1_545  S
C55          C56   1.566       .  A
C55          C60   1.416       .  A
C56          C57   1.398       .  A
C57          C58   1.388       .  A
C57          H62   1.085       .  S
C58          C59   1.413       .  A
C58         C166   1.478       .  S
C59          C60   1.403       .  A
C59         C176   1.500       .  S
C60          H61   1.084       .  S
C63          C64   1.409       .  A
C63          C68   1.387       .  A
C63         C146   1.473       .  S
C64          C65   1.404       .  A
C64         C159   1.500       .  S
C65          C66   1.417       .  A
C65          H70   1.084       .  S
C66          C67   1.567       .  A
C66          C80   1.646       .  S
C67          C68   1.398       .  A
C67         C639   1.644       .  S
C68          H69   1.084       .  S
C71          C72   1.655   1_565  S
C71         C609   1.648       .  S
C71         C635   1.643       .  S
C72          C73   1.563       .  A
C72         C361   1.416       .  A
C73         C358   1.397       .  A
C73          C80   1.632       .  S
C74          C75   1.384   1_556  A
C74         C357   1.397       .  A
C74          H79   1.085       .  S
C75          C76   1.413       .  A
C75         C126   1.480       .  S
C76          C77   1.403   1_554  A
C76         C139   1.494       .  S
C77         C356   1.416       .  A
C77          H78   1.083   1_546  S
O81          V89   1.929       .  S
O81          C91   1.249       .  A
O82          V89   1.955       .  S
O82         C660   1.266       .  A
O83          V89   1.951       .  S
O83          C93   1.259       .  A
O84          V89   1.956       .  S
O84         C662   1.250   1_545  A
O85          V90   1.939       .  S
O85          C94   1.254       .  A
O86          V90   1.938       .  S
O86         C661   1.253       .  A
O87          V90   1.924       .  S
O87          C92   1.259       .  A
O88          V90   1.949       .  S
O88         C659   1.252       .  A
V89         V658   1.884   1_545  T
V90         V657   1.884       .  T
C91         C136   1.482       .  S
C91         O656   1.252   1_545  A
C92         C169   1.486       .  S
C92         O650   1.265       .  A
C93         C196   1.483       .  S
C93         O654   1.254   1_545  A
C94         C149   1.473       .  S
C94         O652   1.251       .  A
O95         V103   1.945       .  S
O95         C105   1.249       .  A
O96         V103   1.955       .  S
O96         C106   1.258       .  A
O97         V103   1.931       .  S
O97         C107   1.250       .  A
O98         V103   1.942       .  S
O98         C108   1.262       .  A
O99         V104   1.946       .  S
O99         C108   1.259       .  A
O100        V104   1.972       .  S
O100        C107   1.260       .  A
O101        V104   1.942       .  S
O101        C106   1.255       .  A
O102        V104   1.952       .  S
O102        C105   1.254       .  A
V103        V104   1.881       .  T
C105        C129   1.475       .  S
C106        C179   1.501       .  S
C107        C156   1.504       .  S
C108        C186   1.481       .  S
C109        C110   1.413       .  A
C109        C114   1.389       .  A
C109        C216   1.487       .  S
C110        C111   1.395       .  A
C110        C259   1.478       .  S
C111        C112   1.405       .  A
C111        H116   1.084   1_545  S
C112        C113   1.563       .  A
C112        C614   1.649   1_545  S
C113        C114   1.403       .  A
C114        H115   1.084       .  S
C117        C118   1.420       .  A
C117        C122   1.379   1_554  A
C117        C249   1.463       .  S
C118        C119   1.404   1_554  A
C118        C229   1.518       .  S
C119        C404   1.422       .  A
C119        H124   1.083   1_556  S
C120        C121   1.564       .  A
C120        C403   1.422       .  A
C121        C406   1.386       .  A
C122        C405   1.386       .  A
C122        H123   1.085   1_556  S
C125        C126   1.400       .  A
C125        C130   1.396       .  A
C125        H132   1.084       .  S
C126        C127   1.403       .  A
C127        C128   1.395       .  A
C127       Br418   1.917   1_554  S
C128        C129   1.402       .  A
C128        H133   1.080       .  S
C129        C130   1.412       .  A
C130       Br131   1.906       .  S
Br134       C411   1.917       .  S
C135        C136   1.404   1_565  A
C135        C140   1.405       .  A
C135        H142   1.082       .  S
C136        C137   1.411       .  A
C137        C138   1.397       .  A
C137       Br144   1.905       .  S
C138        C139   1.401       .  A
C138        H143   1.084       .  S
C139        C140   1.405   1_545  A
C140       Br141   1.901       .  S
C145        C146   1.388       .  A
C145        C150   1.388       .  A
C145        H152   1.084       .  S
C146        C147   1.408       .  A
C147        C148   1.394       .  A
C147       Br154   1.899       .  S
C148        C149   1.395       .  A
C148        H153   1.079       .  S
C149        C150   1.408       .  A
C150       Br151   1.880       .  S
C155        C156   1.401       .  A
C155        C160   1.409       .  A
C155        H162   1.080       .  S
C156        C157   1.413       .  A
C157        C158   1.401       .  A
C157       Br164   1.880       .  S
C158        C159   1.395       .  A
C158        H163   1.084       .  S
C159        C160   1.414       .  A
C160       Br161   1.911       .  S
C165        C166   1.396       .  A
C165        C170   1.395       .  A
C165        H172   1.084       .  S
C166        C167   1.403       .  A
C167        C168   1.392       .  A
C167       Br174   1.916       .  S
C168        C169   1.406       .  A
C168        H173   1.080       .  S
C169        C170   1.414       .  A
C170       Br171   1.891       .  S
C175        C176   1.400       .  A
C175        C180   1.397       .  A
C175        H182   1.084       .  S
C176        C177   1.408       .  A
C177        C178   1.414       .  A
C177       Br184   1.918       .  S
C178        C179   1.413       .  A
C178        H183   1.082       .  S
C179        C180   1.415       .  A
C180       Br181   1.907       .  S
C185        C186   1.404       .  A
C185        C190   1.406       .  A
C185        H192   1.083       .  S
C186        C187   1.409       .  A
C187        C188   1.396       .  A
C187       Br194   1.906       .  S
C188        C189   1.397       .  A
C188        H193   1.083       .  S
C189        C190   1.409       .  A
C190       Br191   1.917       .  S
C195        C196   1.406       .  A
C195        C200   1.404       .  A
C195        H770   1.083   1_545  S
C196        C197   1.410       .  A
C197        C198   1.397       .  A
C197       Br204   1.910       .  S
C198        C199   1.400       .  A
C198        H203   1.083       .  S
C199        C200   1.407       .  A
C200       Br769   1.917   1_554  S
Br201       C768   1.918   1_556  S
H202        C763   1.083       .  S
C205        C206   1.629       .  A
C205        C210   1.599       .  A
C205        H212   1.083       .  S
C206        C207   1.646       .  A
C207        C208   1.637       .  A
C207       Br214   1.908       .  S
C208        C209   1.639       .  A
C208        H213   1.076       .  S
C209        C210   1.600       .  A
C210       Br211   1.901   1_455  S
C215        C216   1.401       .  A
C215        C220   1.396       .  A
C215        H222   1.083       .  S
C216        C217   1.405       .  A
C217        C218   1.400       .  A
C217       Br224   1.910       .  S
C218        C219   1.404       .  A
C218        H223   1.082       .  S
C219        C220   1.411       .  A
C220       Br221   1.912       .  S
C225        C226   1.414       .  A
C225        C230   1.429       .  A
C225        H232   1.082       .  S
C226        C227   1.409       .  A
C227        C228   1.393       .  A
C227       Br234   1.859       .  S
C228        C229   1.390       .  A
C228        H233   1.084       .  S
C229        C230   1.421       .  A
C230       Br231   1.905   1_554  S
C235        C236   1.409       .  A
C235        C240   1.406       .  A
C235        H242   1.082       .  S
C236        C237   1.471       .  A
C237        C238   1.428       .  A
C237       Br244   3.689       .  S
C238        C239   1.407       .  A
C238        H243   1.079       .  S
C239        C240   1.418       .  A
C240       Br809   1.897   1_455  S
Br241       C808   1.896   1_655  S
C245        C246   1.405       .  A
C245        C250   1.402       .  A
C245        H252   1.083       .  S
C246        C247   1.411       .  A
C247        C248   1.375       .  A
C247       Br254   1.888       .  S
C248        C249   1.383       .  A
C248        H253   1.085       .  S
C249        C250   1.409       .  A
C250       Br251   1.917       .  S
C255        C256   1.413       .  A
C255        C260   1.409       .  A
C255        H262   1.081       .  S
C256        C257   1.430   1_545  A
C257        C258   1.391       .  A
C257       Br264   1.885       .  S
C258        C259   1.381   1_565  A
C258        H263   1.086       .  S
C259        C260   1.399       .  A
C260       Br261   1.917       .  S
C265        C266   1.609       .  A
C265        C270   1.597       .  A
C265        H272   1.073       .  S
C266        C267   1.622   1_455  A
C267        C268   1.617   1_655  A
C267       Br274   1.880       .  S
C268        C269   1.628       .  A
C268        H273   1.083       .  S
C269        C270   1.624       .  A
C270       Br271   1.909       .  S
C275        C276   1.428   1_565  A
C275        C280   1.432       .  A
C275        H282   1.078       .  S
C276        C277   1.493       .  A
C277        C278   1.422       .  A
C277       Br284   3.703       .  S
C278        C279   1.350       .  A
C278        H283   1.079       .  S
C279        C280   1.400   1_545  A
C280       Br849   1.913       .  S
Br281       C848   1.910       .  S
C285        C286   1.390       .  A
C285        C290   1.368       .  A
C285        C553   1.407       .  S
C286        C287   1.435       .  A
C286        C560   1.553       .  S
C287        C288   1.443       .  A
C287        H292   1.082   1_545  S
C288        C289   1.561       .  A
C288        C355   1.667   1_545  S
C289        C290   1.381       .  A
C289        C364   1.629       .  S
C290        H291   1.086       .  S
O293        V301   1.958       .  S
O293        C303   1.262       .  A
O294        V301   2.009       .  S
O294        C872   1.261       .  A
O295        V301   1.942       .  S
O295        C873   1.256       .  A
O296        V301   1.938       .  S
O296        C306   1.247       .  A
O297        V302   1.959       .  S
O297        C874   1.257       .  A
O298        V302   1.921       .  S
O298        C305   1.250       .  A
O299        V302   1.886       .  S
O299        C304   1.240       .  A
O300        V302   1.948       .  S
O300        C871   1.255       .  A
V301        V870   1.882   1_545  T
V302        V869   1.884       .  T
C303        C540   1.511       .  S
C303        O868   1.257   1_545  A
C304        C523   1.506   1_655  S
C304        O862   1.261       .  A
C305        C530   1.466       .  S
C305        O863   1.254       .  A
C306        C563   1.514   1_655  S
C306        O865   1.258   1_545  A
O307        V315   1.939       .  S
O307        C317   1.259       .  A
O308        V315   1.979       .  S
O308        C318   1.244   1_655  A
O309        V315   1.949       .  S
O309        C319   1.259       .  A
O310        V315   1.971       .  S
O310        C320   1.254       .  A
O311        V316   1.938       .  S
O311        C320   1.257       .  A
O312        V316   1.942       .  S
O312        C319   1.253       .  A
O313        V316   1.924       .  S
O313        C318   1.238   1_655  A
O314        V316   1.933       .  S
O314        C317   1.260       .  A
V315        V316   1.886       .  T
C317        C503   1.481       .  S
C318        C493   1.488       .  S
C319        C550   1.485   1_655  S
C320        C510   1.525       .  S
C321        C322   1.389       .  A
C321        C326   1.413       .  A
C321        C520   1.526       .  S
C322        C323   1.381       .  A
C322        C490   1.426       .  S
C323        H328   1.084       .  S
C324        C325   1.564       .  A
C324        C364   1.644       .  S
C325        C923   1.648       .  S
C326        H327   1.082       .  S
C329        C332   1.632       .  S
C329        C339   1.651       .  S
C329        C397   1.633       .  S
C329        C404   1.644       .  S
C330        C899   1.659       .  S
C330        C340   1.639       .  S
C330        C964   1.650       .  S
C330        C405   1.637       .  S
C331        C332   1.567       .  A
C331        C898   1.656   1_545  S
C333        C334   1.384       .  A
C333        H338   1.084       .  S
C334        C335   1.409       .  A
C334        C473   1.485       .  S
C335        C336   1.404       .  A
C335        C483   1.485       .  S
C336        H337   1.083   1_545  S
C339        C340   1.566       .  A
C339        C344   1.416       .  A
C340        C341   1.398       .  A
C341        C342   1.388       .  A
C341        H346   1.085       .  S
C342        C343   1.413       .  A
C342        C450   1.478       .  S
C343        C344   1.403       .  A
C343        C460   1.500       .  S
C344        H345   1.084       .  S
C347        C348   1.409       .  A
C347        C352   1.387       .  A
C347        C430   1.473       .  S
C348        C349   1.404       .  A
C348        C443   1.500       .  S
C349        C350   1.417       .  A
C349        H354   1.084       .  S
C350        C351   1.567       .  A
C350        C364   1.646       .  S
C351        C352   1.398       .  A
C351        C923   1.644       .  S
C352        H353   1.084       .  S
C355        C893   1.648       .  S
C355        C919   1.643       .  S
C355        C356   1.655   1_565  S
C356        C357   1.563       .  A
C357        C364   1.632       .  S
C358        C359   1.384       .  A
C358        H363   1.085       .  S
C359        C360   1.413       .  A
C359        C410   1.480       .  S
C360        C361   1.403       .  A
C360        C423   1.494       .  S
C361        H362   1.083   1_545  S
O365        V373   1.929       .  S
O365        C375   1.249       .  A
O366        V373   1.955       .  S
O366        C944   1.266       .  A
O367        V373   1.951       .  S
O367        C377   1.259       .  A
O368        V373   1.956       .  S
O368        C946   1.250   1_545  A
O369        V374   1.939       .  S
O369        C378   1.254       .  A
O370        V374   1.938       .  S
O370        C945   1.253       .  A
O371        V374   1.924       .  S
O371        C376   1.259       .  A
O372        V374   1.949       .  S
O372        C943   1.252       .  A
V373        V942   1.884   1_545  T
V374        V941   1.884       .  T
C375        C420   1.482       .  S
C375        O940   1.252   1_545  A
C376        C453   1.486       .  S
C376        O934   1.265       .  A
C377        C480   1.483       .  S
C377        O938   1.254   1_545  A
C378        C433   1.473       .  S
C378        O936   1.251       .  A
O379        V387   1.945       .  S
O379        C389   1.249       .  A
O380        V387   1.955       .  S
O380        C390   1.258       .  A
O381        V387   1.931       .  S
O381        C391   1.250       .  A
O382        V387   1.942       .  S
O382        C392   1.262       .  A
O383        V388   1.946       .  S
O383        C392   1.259       .  A
O384        V388   1.972       .  S
O384        C391   1.260       .  A
O385        V388   1.942       .  S
O385        C390   1.255       .  A
O386        V388   1.952       .  S
O386        C389   1.254       .  A
V387        V388   1.881       .  T
C389        C413   1.475       .  S
C390        C463   1.501       .  S
C391        C440   1.504       .  S
C392        C470   1.481       .  S
C393        C394   1.413       .  A
C393        C398   1.389       .  A
C393        C500   1.487       .  S
C394        C395   1.395       .  A
C394        C543   1.478       .  S
C395        C396   1.405       .  A
C395        H400   1.084   1_545  S
C396        C397   1.563       .  A
C396        C898   1.649   1_545  S
C397        C398   1.403       .  A
C398        H399   1.084       .  S
C401        C402   1.420       .  A
C401        C406   1.379       .  A
C401        C533   1.463       .  S
C402        C403   1.404       .  A
C402        C513   1.518       .  S
C403        H408   1.083       .  S
C404        C405   1.564       .  A
C406        H407   1.085       .  S
C409        C410   1.400       .  A
C409        C414   1.396       .  A
C409        H416   1.084       .  S
C410        C411   1.403       .  A
C411        C412   1.395       .  A
C412        C413   1.402       .  A
C412        H417   1.080       .  S
C413        C414   1.412       .  A
C414       Br415   1.906       .  S
C419        C420   1.404   1_565  A
C419        C424   1.405       .  A
C419        H426   1.082       .  S
C420        C421   1.411       .  A
C421        C422   1.397       .  A
C421       Br428   1.905       .  S
C422        C423   1.401       .  A
C422        H427   1.084       .  S
C423        C424   1.405   1_545  A
C424       Br425   1.901       .  S
C429        C430   1.388       .  A
C429        C434   1.388       .  A
C429        H436   1.084       .  S
C430        C431   1.408       .  A
C431        C432   1.394       .  A
C431       Br438   1.899       .  S
C432        C433   1.395       .  A
C432        H437   1.079       .  S
C433        C434   1.408       .  A
C434       Br435   1.880       .  S
C439        C440   1.401       .  A
C439        C444   1.409       .  A
C439        H446   1.080       .  S
C440        C441   1.413       .  A
C441        C442   1.401       .  A
C441       Br448   1.880       .  S
C442        C443   1.395       .  A
C442        H447   1.083       .  S
C443        C444   1.414       .  A
C444       Br445   1.911       .  S
C449        C450   1.396       .  A
C449        C454   1.395       .  A
C449        H456   1.084       .  S
C450        C451   1.403       .  A
C451        C452   1.392       .  A
C451       Br458   1.916       .  S
C452        C453   1.406       .  A
C452        H457   1.080       .  S
C453        C454   1.414       .  A
C454       Br455   1.891       .  S
C459        C460   1.400       .  A
C459        C464   1.397       .  A
C459        H466   1.084       .  S
C460        C461   1.408       .  A
C461        C462   1.414       .  A
C461       Br468   1.918       .  S
C462        C463   1.413       .  A
C462        H467   1.082       .  S
C463        C464   1.415       .  A
C464       Br465   1.907       .  S
C469        C470   1.404       .  A
C469        C474   1.406       .  A
C469        H476   1.083       .  S
C470        C471   1.409       .  A
C471        C472   1.396       .  A
C471       Br478   1.906       .  S
C472        C473   1.397       .  A
C472        H477   1.083       .  S
C473        C474   1.409       .  A
C474       Br475   1.917       .  S
C479        C480   1.406       .  A
C479        C484   1.404       .  A
C479       H1054   1.083   1_545  S
C480        C481   1.410       .  A
C481        C482   1.397       .  A
C481       Br488   1.910       .  S
C482        C483   1.400       .  A
C482        H487   1.083       .  S
C483        C484   1.407       .  A
C484      Br1053   1.917       .  S
Br485      C1052   1.918       .  S
H486       C1047   1.083       .  S
C489        C490   1.629       .  A
C489        C494   1.599       .  A
C489        H496   1.083       .  S
C490        C491   1.646       .  A
C491        C492   1.637       .  A
C491       Br498   1.908       .  S
C492        C493   1.639       .  A
C492        H497   1.076       .  S
C493        C494   1.600       .  A
C494       Br495   1.901   1_455  S
C499        C500   1.401       .  A
C499        C504   1.396       .  A
C499        H506   1.083       .  S
C500        C501   1.405       .  A
C501        C502   1.400       .  A
C501       Br508   1.910       .  S
C502        C503   1.404       .  A
C502        H507   1.082       .  S
C503        C504   1.411       .  A
C504       Br505   1.912       .  S
C509        C510   1.414       .  A
C509        C514   1.429       .  A
C509        H516   1.082       .  S
C510        C511   1.409       .  A
C511        C512   1.393       .  A
C511       Br518   1.859       .  S
C512        C513   1.390       .  A
C512        H517   1.084       .  S
C513        C514   1.421       .  A
C514       Br515   1.905       .  S
C519        C520   1.409       .  A
C519        C524   1.406       .  A
C519        H526   1.082       .  S
C520        C521   1.471       .  A
C521        C522   1.428       .  A
C521       Br528   3.689       .  S
C522        C523   1.407       .  A
C522        H527   1.079       .  S
C523        C524   1.418       .  A
C524      Br1093   1.897   1_455  S
Br525      C1092   1.896   1_655  S
C529        C530   1.405       .  A
C529        C534   1.402       .  A
C529        H536   1.083       .  S
C530        C531   1.411       .  A
C531        C532   1.375       .  A
C531       Br538   1.888       .  S
C532        C533   1.383       .  A
C532        H537   1.086       .  S
C533        C534   1.409       .  A
C534       Br535   1.917       .  S
C539        C540   1.413       .  A
C539        C544   1.409       .  A
C539        H546   1.081       .  S
C540        C541   1.430   1_545  A
C541        C542   1.391       .  A
C541       Br548   1.885       .  S
C542        C543   1.381   1_565  A
C542        H547   1.086       .  S
C543        C544   1.399       .  A
C544       Br545   1.917       .  S
C549        C550   1.609       .  A
C549        C554   1.597       .  A
C549        H556   1.073       .  S
C550        C551   1.622   1_455  A
C551        C552   1.617   1_655  A
C551       Br558   1.880       .  S
C552        C553   1.628       .  A
C552        H557   1.083       .  S
C553        C554   1.624       .  A
C554       Br555   1.909       .  S
C559        C560   1.428   1_565  A
C559        C564   1.432       .  A
C559        H566   1.078       .  S
C560        C561   1.493       .  A
C561        C562   1.422       .  A
C561       Br568   3.703       .  S
C562        C563   1.350       .  A
C562        H567   1.079       .  S
C563        C564   1.400   1_545  A
C564      Br1133   1.913       .  S
Br565      C1132   1.910       .  S
C569        C570   1.389       .  A
C569        C574   1.367       .  A
C569        C837   1.408       .  S
C570        C571   1.437       .  A
C570        C844   1.555       .  S
C571        C572   1.444       .  A
C571        H576   1.081       .  S
C572        C573   1.562       .  A
C572        C639   1.670       .  S
C573        C574   1.381       .  A
C573        C648   1.629       .  S
C574        H575   1.086       .  S
O577        V585   1.948       .  S
O577        C587   1.259       .  A
O578        V585   2.006       .  S
O579        V585   1.942       .  S
O580        V585   1.943       .  S
O580        C590   1.245       .  A
O581        V586   1.960       .  S
O582        V586   1.925       .  S
O582        C589   1.252   1_565  A
O583        V586   1.893       .  S
O583        C588   1.242   1_565  A
O584        V586   1.958       .  S
C587        C824   1.495       .  S
C588        C807   1.510   1_645  S
C589        C814   1.475       .  S
C590        C847   1.515   1_655  S
O591        V599   1.951       .  S
O591        C601   1.261       .  A
O592        V599   1.978       .  S
O592        C602   1.241   1_655  A
O593        V599   1.944       .  S
O593        C603   1.259       .  A
O594        V599   1.965       .  S
O594        C604   1.253       .  A
O595        V600   1.934       .  S
O595        C604   1.256       .  A
O596        V600   1.940       .  S
O596        C603   1.254       .  A
O597        V600   1.931       .  S
O597        C602   1.240   1_655  A
O598        V600   1.936       .  S
O598        C601   1.260       .  A
V599        V600   1.884       .  T
C601        C787   1.483       .  S
C602        C777   1.488       .  S
C603        C834   1.482   1_655  S
C604        C794   1.520       .  S
C605        C606   1.390       .  A
C605        C610   1.414       .  A
C605        C804   1.530       .  S
C606        C607   1.382       .  A
C606        C774   1.425       .  S
C607        C892   1.397   1_554  A
C607        H612   1.085       .  S
C608        C891   1.397       .  A
C608        C609   1.563       .  A
C608        C648   1.645       .  S
C609        C894   1.423       .  A
C610        C893   1.423   1_554  A
C610        H611   1.082   1_565  S
C613        C616   1.632       .  S
C613        C623   1.647       .  S
C613        C681   1.631       .  S
C613        C688   1.645       .  S
C614        C624   1.641       .  S
C614        C689   1.637       .  S
C615        C616   1.566       .  A
C615        C904   1.415       .  A
C616        C901   1.402       .  A
C617        C900   1.402       .  A
C617        C618   1.384   1_556  A
C617        H622   1.085       .  S
C618        C619   1.410       .  A
C618        C757   1.486       .  S
C619        C620   1.406   1_554  A
C619        C767   1.487       .  S
C620        C899   1.415       .  A
C620        H621   1.083       .  S
C623        C624   1.565       .  A
C623        C628   1.416       .  A
C624        C625   1.396       .  A
C625        C626   1.389       .  A
C625        H630   1.085   1_565  S
C626        C627   1.414       .  A
C626        C734   1.476       .  S
C627        C628   1.401       .  A
C627        C744   1.502       .  S
C628        H629   1.084       .  S
C631        C632   1.410       .  A
C631        C636   1.388       .  A
C631        C714   1.476       .  S
C632        C633   1.404       .  A
C632        C727   1.498       .  S
C633        C634   1.416       .  A
C633        H638   1.084       .  S
C634        C635   1.566       .  A
C634        C648   1.647       .  S
C635        C636   1.400       .  A
C636        H637   1.084   1_565  S
C639        C640   1.657       .  S
C640        C641   1.564       .  A
C640        C929   1.417       .  A
C641        C926   1.397       .  A
C641        C648   1.632       .  S
C642        C925   1.397       .  A
C642        C643   1.384   1_556  A
C642        H647   1.085       .  S
C643        C644   1.413       .  A
C643        C694   1.480       .  S
C644        C645   1.404   1_554  A
C644        C707   1.495       .  S
C645        C924   1.417       .  A
C645        H646   1.083   1_556  S
O649        V657   1.926       .  S
O649        C659   1.248       .  A
O650        V657   1.955       .  S
O651        V657   1.951       .  S
O651        C661   1.259       .  A
O652        V657   1.953       .  S
O653        V658   1.942       .  S
O653        C662   1.253       .  A
O654        V658   1.939       .  S
O655        V658   1.926       .  S
O655        C660   1.259   1_565  A
O656        V658   1.951       .  S
C659        C704   1.477       .  S
C660        C737   1.489       .  S
C661        C764   1.483       .  S
C662        C717   1.478       .  S
O663        V671   1.945       .  S
O663        C673   1.249       .  A
O664        V671   1.956       .  S
O664        C674   1.258       .  A
O665        V671   1.933       .  S
O665        C675   1.251       .  A
O666        V671   1.943       .  S
O666        C676   1.262       .  A
O667        V672   1.944       .  S
O667        C676   1.258       .  A
O668        V672   1.971       .  S
O668        C675   1.260       .  A
O669        V672   1.942       .  S
O669        C674   1.255       .  A
O670        V672   1.952       .  S
O670        C673   1.254       .  A
V671        V672   1.880       .  T
C673        C697   1.474       .  S
C674        C747   1.502       .  S
C675        C724   1.502       .  S
C676        C754   1.480       .  S
C677        C678   1.411       .  A
C677        C682   1.386       .  A
C677        C784   1.486       .  S
C678        C679   1.397       .  A
C678        C827   1.479       .  S
C679        C680   1.407       .  A
C679        H684   1.084       .  S
C680        C681   1.562       .  A
C681        C682   1.402       .  A
C682        H683   1.084       .  S
C685        C686   1.423       .  A
C685        C690   1.380   1_554  A
C685        C817   1.472       .  S
C686        C687   1.403   1_554  A
C686        C797   1.513       .  S
C687        C972   1.419       .  A
C687        H692   1.083   1_556  S
C688        C971   1.419       .  A
C688        C689   1.563       .  A
C689        C974   1.389       .  A
C690        C973   1.389       .  A
C690        H691   1.085   1_566  S
C693        C694   1.401       .  A
C693        C698   1.397       .  A
C693        H700   1.084       .  S
C694        C695   1.403       .  A
C695        C696   1.394       .  A
C695       Br986   1.916   1_554  S
C696        C697   1.401       .  A
C696        H701   1.080       .  S
C697        C698   1.411       .  A
C698       Br699   1.905       .  S
Br702       C979   1.916       .  S
C703        C704   1.401       .  A
C703        C708   1.403       .  A
C703        H710   1.083       .  S
C704        C705   1.409       .  A
C705        C706   1.397       .  A
C705       Br712   1.905       .  S
C706        C707   1.402       .  A
C706        H711   1.084       .  S
C707        C708   1.407       .  A
C708       Br709   1.898       .  S
C713        C714   1.388       .  A
C713        C718   1.390       .  A
C713        H720   1.084       .  S
C714        C715   1.409       .  A
C715        C716   1.395       .  A
C715       Br722   1.901       .  S
C716        C717   1.396       .  A
C716        H721   1.077       .  S
C717        C718   1.407       .  A
C718       Br719   1.878       .  S
C723        C724   1.401       .  A
C723        C728   1.408       .  A
C723        H730   1.080       .  S
C724        C725   1.413       .  A
C725        C726   1.400       .  A
C725       Br732   1.879       .  S
C726        C727   1.394       .  A
C726        H731   1.084       .  S
C727        C728   1.414       .  A
C728       Br729   1.911       .  S
C733        C734   1.394   1_545  A
C733        C738   1.394       .  A
C733        H740   1.084       .  S
C734        C735   1.401       .  A
C735        C736   1.394       .  A
C735       Br742   1.918       .  S
C736        C737   1.409   1_565  A
C736        H741   1.080       .  S
C737        C738   1.415       .  A
C738       Br739   1.890       .  S
C743        C744   1.399       .  A
C743        C748   1.397       .  A
C743        H750   1.084       .  S
C744        C745   1.411       .  A
C745        C746   1.414       .  A
C745       Br752   1.917       .  S
C746        C747   1.412       .  A
C746        H751   1.081       .  S
C747        C748   1.415       .  A
C748       Br749   1.905       .  S
C753        C754   1.403       .  A
C753        C758   1.405       .  A
C753        H760   1.083       .  S
C754        C755   1.409       .  A
C755        C756   1.396       .  A
C755       Br762   1.906       .  S
C756        C757   1.397       .  A
C756        H761   1.083       .  S
C757        C758   1.410       .  A
C758       Br759   1.916       .  S
C763        C764   1.406       .  A
C763        C768   1.405       .  A
C764        C765   1.410       .  A
C765        C766   1.398       .  A
C765       Br772   1.910       .  S
C766        C767   1.400       .  A
C766        H771   1.082       .  S
C767        C768   1.408       .  A
C773        C774   1.626       .  A
C773        C778   1.596       .  A
C773        H780   1.083       .  S
C774        C775   1.645       .  A
C775        C776   1.640       .  A
C775       Br782   1.908       .  S
C776        C777   1.643       .  A
C776        H781   1.076       .  S
C777        C778   1.598       .  A
C778       Br779   1.897   1_455  S
C783        C784   1.399       .  A
C783        C788   1.397       .  A
C783        H790   1.084       .  S
C784        C785   1.404       .  A
C785        C786   1.400       .  A
C785       Br792   1.907       .  S
C786        C787   1.404       .  A
C786        H791   1.083       .  S
C787        C788   1.410       .  A
C788       Br789   1.904       .  S
C793        C794   1.412       .  A
C793        C798   1.426       .  A
C793        H800   1.082       .  S
C794        C795   1.408       .  A
C795        C796   1.390       .  A
C795       Br802   1.853       .  S
C796        C797   1.387       .  A
C796        H801   1.085       .  S
C797        C798   1.420       .  A
C798       Br799   1.902   1_554  S
C803        C804   1.410       .  A
C803        C808   1.408   1_565  A
C803        H810   1.082   1_565  S
C804        C805   1.471       .  A
C805        C806   1.431       .  A
C805       Br812   3.689       .  S
C806        C807   1.405       .  A
C806        H811   1.078       .  S
C807        C808   1.418   1_565  A
C813        C814   1.405       .  A
C813        C818   1.403       .  A
C813        H820   1.082       .  S
C814        C815   1.411   1_545  A
C815        C816   1.378       .  A
C815       Br822   1.886       .  S
C816        C817   1.385       .  A
C816        H821   1.085       .  S
C817        C818   1.411   1_565  A
C818       Br819   1.914       .  S
C823        C824   1.407       .  A
C823        C828   1.405       .  A
C823        H830   1.081       .  S
C824        C825   1.419       .  A
C825        C826   1.395       .  A
C825       Br832   1.892       .  S
C826        C827   1.391       .  A
C826        H831   1.085       .  S
C827        C828   1.403       .  A
C828       Br829   1.917       .  S
C833        C834   1.611       .  A
C833        C838   1.598       .  A
C833        H840   1.070       .  S
C834        C835   1.621   1_455  A
C835        C836   1.617   1_655  A
C835       Br842   1.885       .  S
C836        C837   1.629       .  A
C836        H841   1.082       .  S
C837        C838   1.625       .  A
C838       Br839   1.910       .  S
C843        C844   1.426       .  A
C843        C848   1.431       .  A
C843        H850   1.077       .  S
C844        C845   1.494       .  A
C845        C846   1.425       .  A
C845       Br852   3.702       .  S
C846        C847   1.351       .  A
C846        H851   1.078       .  S
C847        C848   1.399       .  A
C853        C854   1.389       .  A
C853        C858   1.367       .  A
C853       C1121   1.408       .  S
C854        C855   1.437       .  A
C854       C1128   1.555       .  S
C855        C856   1.444       .  A
C855        H860   1.081       .  S
C856        C857   1.562       .  A
C856        C923   1.670       .  S
C857        C858   1.381       .  A
C857        C932   1.629       .  S
C858        H859   1.086       .  S
O861        V869   1.948       .  S
O861        C871   1.259       .  A
O862        V869   2.006       .  S
O863        V869   1.942       .  S
O864        V869   1.943       .  S
O864        C874   1.245       .  A
O865        V870   1.960       .  S
O866        V870   1.925       .  S
O866        C873   1.252   1_565  A
O867        V870   1.893       .  S
O867        C872   1.242   1_565  A
O868        V870   1.958       .  S
C871       C1108   1.495       .  S
C872       C1091   1.510   1_645  S
C873       C1098   1.475       .  S
C874       C1131   1.515   1_655  S
O875        V883   1.951       .  S
O875        C885   1.261       .  A
O876        V883   1.978       .  S
O876        C886   1.241   1_655  A
O877        V883   1.944       .  S
O877        C887   1.259       .  A
O878        V883   1.965       .  S
O878        C888   1.253       .  A
O879        V884   1.934       .  S
O879        C888   1.256       .  A
O880        V884   1.940       .  S
O880        C887   1.254       .  A
O881        V884   1.931       .  S
O881        C886   1.240   1_655  A
O882        V884   1.936       .  S
O882        C885   1.260       .  A
V883        V884   1.884       .  T
C885       C1071   1.483       .  S
C886       C1061   1.488       .  S
C887       C1118   1.482   1_655  S
C888       C1078   1.520       .  S
C889        C890   1.390       .  A
C889        C894   1.414       .  A
C889       C1088   1.530       .  S
C890        C891   1.382       .  A
C890       C1058   1.425       .  S
C891        H896   1.085       .  S
C892        C893   1.563       .  A
C892        C932   1.645       .  S
C894        H895   1.082   1_565  S
C897        C900   1.632       .  S
C897        C907   1.647       .  S
C897        C965   1.631       .  S
C897        C972   1.645       .  S
C898        C908   1.641       .  S
C898        C973   1.637       .  S
C899        C900   1.566       .  A
C901        C902   1.384       .  A
C901        H906   1.085       .  S
C902        C903   1.410       .  A
C902       C1041   1.486       .  S
C903        C904   1.406       .  A
C903       C1051   1.487       .  S
C904        H905   1.083       .  S
C907        C908   1.565       .  A
C907        C912   1.416       .  A
C908        C909   1.396       .  A
C909        C910   1.389       .  A
C909        H914   1.085   1_565  S
C910        C911   1.414       .  A
C910       C1018   1.476       .  S
C911        C912   1.401       .  A
C911       C1028   1.502       .  S
C912        H913   1.084       .  S
C915        C916   1.410       .  A
C915        C920   1.388       .  A
C915        C998   1.476       .  S
C916        C917   1.404       .  A
C916       C1011   1.498       .  S
C917        C918   1.416       .  A
C917        H922   1.084       .  S
C918        C919   1.566       .  A
C918        C932   1.647       .  S
C919        C920   1.400       .  A
C920        H921   1.084   1_565  S
C923        C924   1.657       .  S
C924        C925   1.564       .  A
C925        C932   1.632       .  S
C926        C927   1.384       .  A
C926        H931   1.085       .  S
C927        C928   1.413       .  A
C927        C978   1.480       .  S
C928        C929   1.404       .  A
C928        C991   1.495       .  S
C929        H930   1.083       .  S
O933        V941   1.926       .  S
O933        C943   1.248       .  A
O934        V941   1.955       .  S
O935        V941   1.951       .  S
O935        C945   1.259       .  A
O936        V941   1.953       .  S
O937        V942   1.942       .  S
O937        C946   1.253       .  A
O938        V942   1.939       .  S
O939        V942   1.926       .  S
O939        C944   1.259   1_565  A
O940        V942   1.951       .  S
C943        C988   1.477       .  S
C944       C1021   1.489       .  S
C945       C1048   1.483       .  S
C946       C1001   1.478       .  S
O947        V955   1.945       .  S
O947        C957   1.249       .  A
O948        V955   1.956       .  S
O948        C958   1.258       .  A
O949        V955   1.933       .  S
O949        C959   1.251       .  A
O950        V955   1.943       .  S
O950        C960   1.262       .  A
O951        V956   1.944       .  S
O951        C960   1.258       .  A
O952        V956   1.971       .  S
O952        C959   1.260       .  A
O953        V956   1.942       .  S
O953        C958   1.255       .  A
O954        V956   1.952       .  S
O954        C957   1.254       .  A
V955        V956   1.880       .  T
C957        C981   1.474       .  S
C958       C1031   1.502       .  S
C959       C1008   1.502       .  S
C960       C1038   1.480       .  S
C961        C962   1.411       .  A
C961        C966   1.386       .  A
C961       C1068   1.486       .  S
C962        C963   1.397       .  A
C962       C1111   1.479       .  S
C963        C964   1.407       .  A
C963        H968   1.084       .  S
C964        C965   1.562       .  A
C965        C966   1.402       .  A
C966        H967   1.084       .  S
C969        C970   1.423       .  A
C969        C974   1.380       .  A
C969       C1101   1.472       .  S
C970        C971   1.403       .  A
C970       C1081   1.513       .  S
C971        H976   1.083       .  S
C972        C973   1.563       .  A
C974        H975   1.085   1_565  S
C977        C978   1.401       .  A
C977        C982   1.397       .  A
C977        H984   1.084       .  S
C978        C979   1.403       .  A
C979        C980   1.394       .  A
C980        C981   1.401       .  A
C980        H985   1.080       .  S
C981        C982   1.411       .  A
C982       Br983   1.905       .  S
C987        C988   1.401       .  A
C987        C992   1.403       .  A
C987        H994   1.083       .  S
C988        C989   1.409       .  A
C989        C990   1.397       .  A
C989       Br996   1.905       .  S
C990        C991   1.402       .  A
C990        H995   1.084       .  S
C991        C992   1.407       .  A
C992       Br993   1.898       .  S
C997        C998   1.388       .  A
C997       C1002   1.390       .  A
C997       H1004   1.084       .  S
C998        C999   1.409       .  A
C999       C1000   1.395       .  A
C999      Br1006   1.901       .  S
C1000      C1001   1.396       .  A
C1000      H1005   1.077       .  S
C1001      C1002   1.407       .  A
C1002     Br1003   1.878       .  S
C1007      C1008   1.401       .  A
C1007      C1012   1.408       .  A
C1007      H1014   1.080       .  S
C1008      C1009   1.413       .  A
C1009      C1010   1.400       .  A
C1009     Br1016   1.879       .  S
C1010      C1011   1.394       .  A
C1010      H1015   1.084       .  S
C1011      C1012   1.414       .  A
C1012     Br1013   1.911       .  S
C1017      C1018   1.394   1_545  A
C1017      C1022   1.394       .  A
C1017      H1024   1.084       .  S
C1018      C1019   1.401       .  A
C1019      C1020   1.394       .  A
C1019     Br1026   1.918       .  S
C1020      C1021   1.409   1_565  A
C1020      H1025   1.080       .  S
C1021      C1022   1.415       .  A
C1022     Br1023   1.890       .  S
C1027      C1028   1.399       .  A
C1027      C1032   1.397       .  A
C1027      H1034   1.084       .  S
C1028      C1029   1.411       .  A
C1029      C1030   1.414       .  A
C1029     Br1036   1.917       .  S
C1030      C1031   1.412       .  A
C1030      H1035   1.081       .  S
C1031      C1032   1.415       .  A
C1032     Br1033   1.905       .  S
C1037      C1038   1.403       .  A
C1037      C1042   1.405       .  A
C1037      H1044   1.083       .  S
C1038      C1039   1.409       .  A
C1039      C1040   1.396       .  A
C1039     Br1046   1.906       .  S
C1040      C1041   1.397       .  A
C1040      H1045   1.083       .  S
C1041      C1042   1.410       .  A
C1042     Br1043   1.916       .  S
C1047      C1048   1.406       .  A
C1047      C1052   1.405       .  A
C1048      C1049   1.410       .  A
C1049      C1050   1.398       .  A
C1049     Br1056   1.910       .  S
C1050      C1051   1.400       .  A
C1050      H1055   1.082       .  S
C1051      C1052   1.408       .  A
C1057      C1058   1.626       .  A
C1057      C1062   1.596       .  A
C1057      H1064   1.083       .  S
C1058      C1059   1.645       .  A
C1059      C1060   1.640       .  A
C1059     Br1066   1.908       .  S
C1060      C1061   1.643       .  A
C1060      H1065   1.076       .  S
C1061      C1062   1.598       .  A
C1062     Br1063   1.897   1_455  S
C1067      C1068   1.399       .  A
C1067      C1072   1.397       .  A
C1067      H1074   1.084       .  S
C1068      C1069   1.404       .  A
C1069      C1070   1.400       .  A
C1069     Br1076   1.907       .  S
C1070      C1071   1.404       .  A
C1070      H1075   1.083       .  S
C1071      C1072   1.410       .  A
C1072     Br1073   1.904       .  S
C1077      C1078   1.412       .  A
C1077      C1082   1.426       .  A
C1077      H1084   1.082       .  S
C1078      C1079   1.408       .  A
C1079      C1080   1.390       .  A
C1079     Br1086   1.853       .  S
C1080      C1081   1.387       .  A
C1080      H1085   1.085       .  S
C1081      C1082   1.420       .  A
C1082     Br1083   1.902       .  S
C1087      C1088   1.410       .  A
C1087      C1092   1.408   1_565  A
C1087      H1094   1.082   1_565  S
C1088      C1089   1.471       .  A
C1089      C1090   1.431       .  A
C1089     Br1096   3.689       .  S
C1090      C1091   1.405       .  A
C1090      H1095   1.078       .  S
C1091      C1092   1.418   1_565  A
C1097      C1098   1.405       .  A
C1097      C1102   1.403       .  A
C1097      H1104   1.082       .  S
C1098      C1099   1.411   1_545  A
C1099      C1100   1.378       .  A
C1099     Br1106   1.886       .  S
C1100      C1101   1.385       .  A
C1100      H1105   1.085       .  S
C1101      C1102   1.411   1_565  A
C1102     Br1103   1.914       .  S
C1107      C1108   1.407       .  A
C1107      C1112   1.405       .  A
C1107      H1114   1.081       .  S
C1108      C1109   1.419       .  A
C1109      C1110   1.395       .  A
C1109     Br1116   1.892       .  S
C1110      C1111   1.391       .  A
C1110      H1115   1.085       .  S
C1111      C1112   1.403       .  A
C1112     Br1113   1.917       .  S
C1117      C1118   1.611       .  A
C1117      C1122   1.598       .  A
C1117      H1124   1.070       .  S
C1118      C1119   1.621   1_455  A
C1119      C1120   1.617   1_655  A
C1119     Br1126   1.885       .  S
C1120      C1121   1.629       .  A
C1120      H1125   1.082       .  S
C1121      C1122   1.625       .  A
C1122     Br1123   1.910       .  S
C1127      C1128   1.426       .  A
C1127      C1132   1.431       .  A
C1127      H1134   1.077       .  S
C1128      C1129   1.494       .  A
C1129      C1130   1.425       .  A
C1129     Br1136   3.702       .  S
C1130      C1131   1.351       .  A
C1130      H1135   1.078       .  S
C1131      C1132   1.399       .  A
