geometry optimzed in LAMMPS
_audit_creation_date              2020-11-30 
_audit_creation_method            'lammps2cif' 
_symmetry_space_group_name_H-M    'P1' 
_symmetry_Int_Tables_number       1 
_symmetry_cell_setting            triclinic 
loop_ 
_symmetry_equiv_pos_as_xyz 
  x,y,z 
_cell_length_a                    28.426444443777683 
_cell_length_b                    28.42793361254503 
_cell_length_c                    30.76064699122286 
_cell_angle_alpha                 89.99907989792236 
_cell_angle_beta                  90.00089135756177 
_cell_angle_gamma                 120.10212695310427 
loop_ 
_atom_site_label 
_atom_site_type_symbol 
_atom_site_fract_x 
_atom_site_fract_y 
_atom_site_fract_z 
_atom_site_charge 
Fe1        Fe  0.52730862  0.58319466  0.16653691     1.65780
Fe2        Fe  0.47713649  0.66751025  0.16676051     1.73250
Fe3        Fe  0.61853861  0.72046598  0.16639280     1.54410
O4          O  0.64526580  0.68787373  0.21633417    -0.83050
O5          O  0.51108216  0.72462782  0.11873584    -0.81350
O6          O  0.58245335  0.60026276  0.21308451    -0.85550
O7          O  0.58226390  0.60017774  0.11996063    -0.80410
O8          O  0.60193229  0.76123300  0.21562296    -0.82180
O9          O  0.43477640  0.61124643  0.11717291    -0.84930
C10         C  0.62383158  0.63905378  0.10282567     0.95840
C11         C  0.62399903  0.63921173  0.23022944     1.03280
O12         O  0.54126377  0.65752168  0.16656250    -1.13910
O13         O  0.43495581  0.61112254  0.21614951    -0.76340
O14         O  0.47070803  0.55746568  0.21478160    -0.79830
O15         O  0.64516414  0.68770910  0.11665126    -0.80520
C16         C  0.43879315  0.57151640  0.23099598     0.94740
O17         O  0.47055784  0.55758614  0.11831933    -0.78470
O18         O  0.51154596  0.72441881  0.21500224    -0.83670
C19         C  0.55737805  0.75634237  0.10231581     0.97360
C20         C  0.55810464  0.75660833  0.23084777     1.03280
O21         O  0.60134308  0.76061606  0.11693205    -0.79310
C22         C  0.43861680  0.57167520  0.10216444     1.01580
Fe23       Fe  0.39508363  0.45097017  0.99989045     1.65780
Fe24       Fe  0.31076994  0.50114795  0.33301573     1.73250
Fe25       Fe  0.25780567  0.35974883  0.33337128     1.54410
O26         O  0.29037227  0.33301964  0.28341428    -0.83050
O27         O  0.25360855  0.46717511  0.04767389    -0.81350
O28         O  0.37800119  0.39576797  0.28671622    -0.85550
O29         O  0.37810909  0.39606726  0.04650932    -0.80410
O30         O  0.21703635  0.37638635  0.28415472    -0.82180
O31         O  0.36699063  0.54346731  0.04930113    -0.84930
C32         C  0.33923611  0.35447411  0.06362064     0.95840
C33         C  0.33904535  0.35424553  0.26955081     1.03280
O34         O  0.32075473  0.43701915  0.33320498    -1.13910
O35         O  0.36720378  0.54336736  0.28366151    -0.76340
O36         O  0.42077228  0.50750907  0.28493601    -0.79830
O37         O  0.29058566  0.33311243  0.04976475    -0.80520
C38         C  0.40675984  0.53947735  0.26876676     0.94740
O39         O  0.42073218  0.50778066  0.04806774    -0.78470
O40         O  0.25390609  0.46677642  0.28474426    -0.83670
C41         C  0.22191278  0.42088751  0.06410938     0.97360
C42         C  0.22169566  0.42022063  0.26891122     1.03280
O43         O  0.21766486  0.37692764  0.04951422    -0.79310
C44         C  0.40660815  0.53967547  0.06426405     1.01580
Fe45       Fe  0.04771056  0.45129149  0.16665894     1.65780
Fe46       Fe  0.18231722  0.50108731  0.16684078     1.73250
Fe47       Fe  0.09311478  0.35996961  0.16642148     1.54410
O48         O  0.03226958  0.33290238  0.21528466    -0.83050
O49         O  0.20430012  0.46774000  0.11760176    -0.81350
O50         O  0.01144297  0.39861090  0.21494446    -0.85550
O51         O  0.00706864  0.39420974  0.12195418    -0.80410
O52         O  0.14929200  0.37630881  0.21673492    -0.82180
O53         O  0.16808373  0.54452731  0.11865387    -0.84930
C54         C  0.00586864  0.35419514  0.10335743     0.95840
C55         C  0.00711969  0.35573115  0.23076477     1.03280
O56         O  0.10791471  0.43716889  0.16663218    -1.13910
O57         O  0.16874712  0.54191041  0.21754433    -0.76340
O58         O  0.08004870  0.51023221  0.21300554    -0.79830
O59         O  0.03518117  0.33441514  0.11553496    -0.80520
C60         C  0.12557274  0.54002061  0.23081646     0.94740
O61         O  0.07811986  0.50532650  0.11674263    -0.78470
O62         O  0.20571462  0.46617191  0.21376754    -0.83670
C63         C  0.19040932  0.42113474  0.10221866     0.97370
C64         C  0.19003545  0.41999017  0.23075091     1.03280
O65         O  0.15173661  0.37717972  0.11797457    -0.79310
C66         C  0.12461980  0.53882129  0.10205251     1.01580
Fe67       Fe  0.52705521  0.93059859  0.99977649     1.65780
Fe68       Fe  0.47722925  0.79599821  0.33288680     1.73250
Fe69       Fe  0.61835539  0.88516427  0.33337135     1.54420
O70         O  0.64546846  0.94602255  0.28452280    -0.83050
O71         O  0.51053822  0.77396768  0.04880587    -0.81350
O72         O  0.57977087  0.96687097  0.28484503    -0.85550
O73         O  0.58411651  0.97122172  0.04448524    -0.80410
O74         O  0.60202872  0.82899853  0.28304334    -0.82180
O75         O  0.43376847  0.81020723  0.04772767    -0.84930
C76         C  0.62410122  0.97239435  0.06310888     0.95840
C77         C  0.62265315  0.97118106  0.26903548     1.03280
O78         O  0.54116148  0.87038719  0.33313032    -1.13910
O79         O  0.43645686  0.80963528  0.28217153    -0.76340
O80         O  0.46813474  0.89832447  0.28675166    -0.79830
O81         O  0.64387592  0.94307014  0.05094823    -0.80520
C82         C  0.43835506  0.85282110  0.26891788     0.94740
O83         O  0.47301000  0.90016881  0.04968544    -0.78470
O84         O  0.51215318  0.77261289  0.28596878    -0.83670
C85         C  0.55713649  0.78784792  0.06420583     0.97370
C86         C  0.55834194  0.78827479  0.26900574     1.03280
O87         O  0.60110454  0.82652372  0.04846809    -0.79310
C88         C  0.43949815  0.85366771  0.06435373     1.01580
Fe89       Fe  0.93192960  0.39397697  0.00005342     1.65780
Fe90       Fe  0.79711337  0.30974384  0.33369554     1.73250
Fe91       Fe  0.88544573  0.25692362  0.33293681     1.54420
O92         O  0.94377884  0.28913178  0.28243255    -0.83050
O93         O  0.77387022  0.25182274  0.04763197    -0.81350
O94         O  0.97163795  0.37710534  0.28825221    -0.85550
O95         O  0.96836196  0.37699822  0.04803786    -0.80410
O96         O  0.82713913  0.21638212  0.28422384    -0.82180
O97         O  0.81126579  0.36472483  0.05067952    -0.84930
C98         C  0.97187896  0.33802316  0.06401911     0.95840
C99         C  0.97296734  0.33817216  0.26998136     1.03280
O100        O  0.87129342  0.31975311  0.33333369    -1.13910
O101        O  0.81147901  0.36712853  0.28519524    -0.76340
O102        O  0.90146588  0.41822996  0.28380330    -0.79830
O103        O  0.94589997  0.28992173  0.04873411    -0.80520
C104        C  0.85505495  0.40512899  0.26884270     0.94740
O105        O  0.90029358  0.42065907  0.04679966    -0.78470
O106        O  0.77429213  0.25390102  0.28478532    -0.83670
C107        C  0.78898250  0.22064530  0.06410342     0.97360
C108        C  0.78827475  0.22153095  0.26893668     1.03280
O109        O  0.82895153  0.21691906  0.04953228    -0.79310
C110        C  0.85471247  0.40554223  0.06424151     1.01580
Fe111      Fe  0.58431175  0.04629856  0.16646158     1.65780
Fe112      Fe  0.66850516  0.18110613  0.16604858     1.73250
Fe113      Fe  0.72138141  0.09283072  0.16683484     1.54420
O114        O  0.68925830  0.03457744  0.21739650    -0.83050
O115        O  0.72644306  0.20436699  0.11879926    -0.81350
O116        O  0.60125652  0.00655852  0.21150501    -0.85550
O117        O  0.60126432  0.00992682  0.11839873    -0.80410
O118        O  0.76196558  0.15120066  0.21548946    -0.82180
O119        O  0.61353775  0.16688388  0.11570676    -0.84930
C120        C  0.64024225  0.00637460  0.10244992     0.95840
C121        C  0.64021242  0.00530979  0.22980975     1.03280
O122        O  0.65852800  0.10694711  0.16645162    -1.13910
O123        O  0.61109314  0.16675547  0.21451980    -0.76340
O124        O  0.56017679  0.07675860  0.21613947    -0.79830
O125        O  0.68833253  0.03230746  0.11776835    -0.80520
C126        C  0.57321620  0.12319998  0.23099806     0.94740
O127        O  0.55746908  0.07790525  0.11980873    -0.78470
O128        O  0.72433981  0.20395395  0.21497816    -0.83670
C129        C  0.75759342  0.18924322  0.10229892     0.97370
C130        C  0.75676423  0.19002591  0.23079862     1.03280
O131        O  0.76131050  0.14926075  0.11684907    -0.79310
C132        C  0.57262664  0.12344217  0.10226478     1.01580
Fe133      Fe  0.93238981  0.52520976  0.16665450     1.65780
Fe134      Fe  0.79777377  0.47540316  0.16686460     1.73250
Fe135      Fe  0.88698260  0.61653997  0.16641310     1.54410
O136        O  0.94774046  0.64360365  0.21533391    -0.83050
O137        O  0.77572111  0.50878642  0.11769453    -0.81350
O138        O  0.96883988  0.57809563  0.21478930    -0.85550
O139        O  0.97283332  0.58209389  0.12178438    -0.80410
O140        O  0.83072501  0.60018397  0.21667451    -0.82180
O141        O  0.81192756  0.43200794  0.11860343    -0.84930
C142        C  0.97416836  0.62222619  0.10328434     0.95840
C143        C  0.97305137  0.62088618  0.23069721     1.03280
O144        O  0.87218268  0.53933095  0.16663760    -1.13910
O145        O  0.81139509  0.43451131  0.21749490    -0.76340
O146        O  0.90016231  0.46647439  0.21316120    -0.79830
O147        O  0.94501969  0.64214611  0.11558257    -0.80520
C148        C  0.85460282  0.43655054  0.23087457     0.94740
O149        O  0.90186994  0.47096290  0.11688612    -0.78470
O150        O  0.77445344  0.51028492  0.21385996    -0.83670
C151        C  0.78968094  0.55537407  0.10223551     0.97360
C152        C  0.79006440  0.55648821  0.23076972     1.03280
O153        O  0.82843629  0.59932985  0.11791054    -0.79310
C154        C  0.85538417  0.43758543  0.10210537     1.01580
Fe155      Fe  0.45307700  0.04587239  0.99977275     1.65780
Fe156      Fe  0.50289075  0.18046267  0.33290998     1.73250
Fe157      Fe  0.36178501  0.09130313  0.33336198     1.54410
O158        O  0.33467083  0.03035808  0.28457097    -0.83050
O159        O  0.46962235  0.20242142  0.04890123    -0.81350
O160        O  0.40056735  0.00978197  0.28468999    -0.85550
O161        O  0.39580666  0.00503862  0.04430632    -0.80410
O162        O  0.37809488  0.14738893  0.28298205    -0.82180
O163        O  0.54640027  0.16617012  0.04767217    -0.84930
C164        C  0.35594941  0.00401183  0.06303362     0.95840
C165        C  0.35759654  0.00536018  0.26896757     1.03280
O166        O  0.43896851  0.10608045  0.33313537    -1.13910
O167        O  0.54359429  0.16687506  0.28212257    -0.76340
O168        O  0.51220268  0.07825669  0.28690892    -0.79830
O169        O  0.33632455  0.03350967  0.05100032    -0.80520
C170        C  0.54184601  0.12372346  0.26897685     0.94740
O171        O  0.50689856  0.07618764  0.04983677    -0.78470
O172        O  0.46793412  0.20392416  0.28605935    -0.83670
C173        C  0.42300615  0.18861398  0.06422198     0.97360
C174        C  0.42176712  0.18819468  0.26902300     1.03280
O175        O  0.37903904  0.15002505  0.04839982    -0.79310
C176        C  0.54053486  0.12270289  0.06440817     1.01580
Fe177      Fe  0.58500598  0.52549281  0.99990933     1.65780
Fe178      Fe  0.66932837  0.47532920  0.33303439     1.73250
Fe179      Fe  0.72228190  0.61672570  0.33336990     1.54420
O180        O  0.68969130  0.64344402  0.28342711    -0.83050
O181        O  0.72645983  0.50930139  0.04771308    -0.81350
O182        O  0.60207210  0.58065940  0.28671008    -0.85550
O183        O  0.60199213  0.58042540  0.04650239    -0.80410
O184        O  0.76303664  0.60009912  0.28414171    -0.82180
O185        O  0.61308547  0.43298527  0.04929952    -0.84930
C186        C  0.64087041  0.62200759  0.06361988     0.95840
C187        C  0.64102177  0.62219315  0.26955142     1.03280
O188        O  0.65933646  0.53945191  0.33321636    -1.13910
O189        O  0.61292072  0.43312655  0.28365941    -0.76340
O190        O  0.55929506  0.46891878  0.28498216    -0.79830
O191        O  0.68952175  0.64335741  0.04977264    -0.80520
C192        C  0.57333389  0.43698286  0.26878988     0.94740
O193        O  0.55938408  0.46871832  0.04811263    -0.78470
O194        O  0.72622211  0.50971761  0.28478484    -0.83670
C195        C  0.75817546  0.55559976  0.06412222     0.97360
C196        C  0.75840718  0.55626701  0.26892751     1.03280
O197        O  0.76244789  0.59955755  0.04949596    -0.79310
C198        C  0.57349192  0.43680009  0.06428699     1.01580
Fe199      Fe  0.45278491  0.39326456  0.16655558     1.65780
Fe200      Fe  0.50297250  0.30895931  0.16677848     1.73250
Fe201      Fe  0.36156787  0.25599241  0.16638968     1.54420
O202        O  0.33482876  0.28855999  0.21634515    -0.83050
O203        O  0.46902668  0.25181122  0.11877512    -0.81350
O204        O  0.39760532  0.37618071  0.21307802    -0.85550
O205        O  0.39785913  0.37629296  0.11995357    -0.80410
O206        O  0.37818442  0.21521029  0.21560830    -0.82180
O207        O  0.54530763  0.36520002  0.11717200    -0.84930
C208        C  0.35628077  0.33742214  0.10282457     0.95840
C209        C  0.35607055  0.33722524  0.23022898     1.03280
O210        O  0.43883900  0.31894055  0.16657291    -1.13910
O211        O  0.54516874  0.36537215  0.21614732    -0.76340
O212        O  0.50935098  0.41897233  0.21482728    -0.79830
O213        O  0.33493672  0.28876765  0.11665857    -0.80520
C214        C  0.54129765  0.40494747  0.23101894     0.94740
O215        O  0.50957137  0.41889948  0.11836391    -0.78470
O216        O  0.46857925  0.25207950  0.21504145    -0.83670
C217        C  0.42274192  0.22011689  0.10232805     0.97370
C218        C  0.42201404  0.21986445  0.23086248     1.03280
O219        O  0.37877452  0.21586733  0.11691287    -0.79310
C220        C  0.54148942  0.40479456  0.10218749     1.01580
Fe221      Fe  0.04816975  0.58252991  0.99996797     1.65780
Fe222      Fe  0.18298799  0.66674297  0.33370336     1.73250
Fe223      Fe  0.09467613  0.71959055  0.33293463     1.54420
O224        O  0.03634738  0.68742971  0.28242170    -0.83050
O225        O  0.20620664  0.72462821  0.04766444    -0.81470
O226        O  0.00853220  0.59945845  0.28814797    -0.85550
O227        O  0.01168322  0.59947412  0.04793292    -0.80410
O228        O  0.15299829  0.76013704  0.28423163    -0.82180
O229        O  0.16877315  0.61171976  0.05066635    -0.84930
C230        C  0.00818137  0.63844027  0.06395435     0.95840
C231        C  0.00719247  0.63840755  0.26991856     1.03280
O232        O  0.10881431  0.65674979  0.33330981    -1.13910
O233        O  0.16866276  0.60939440  0.28518041    -0.76340
O234        O  0.07867742  0.55831969  0.28372350    -0.79830
O235        O  0.03420936  0.68656808  0.04872361    -0.80520
C236        C  0.12509912  0.57142136  0.26879022     0.94740
O237        O  0.07974803  0.55578607  0.04672525    -0.78470
O238        O  0.20585280  0.72262414  0.28481776    -0.83670
C239        C  0.19110919  0.75581988  0.06412767     0.97360
C240        C  0.19187341  0.75499380  0.26896044     1.03280
O241        O  0.15116091  0.75957146  0.04954122    -0.79310
C242        C  0.12531436  0.57088777  0.06419373     1.01580
Fe243      Fe  0.39582591  0.93017153  0.16637461     1.65780
Fe244      Fe  0.31161059  0.79536393  0.16605653     1.73250
Fe245      Fe  0.25876426  0.88366170  0.16683272     1.54420
O246        O  0.29093577  0.94191842  0.21738605    -0.83050
O247        O  0.25363602  0.77208029  0.11883218    -0.81350
O248        O  0.37893975  0.96998262  0.21139950    -0.85550
O249        O  0.37883996  0.96648911  0.11829115    -0.80410
O250        O  0.21818358  0.82530693  0.21549696    -0.82180
O251        O  0.36653442  0.80952388  0.11569283    -0.84930
C252        C  0.33985289  0.97005696  0.10238396     0.95840
C253        C  0.33999984  0.97122019  0.22974659     1.03280
O254        O  0.32160541  0.86953001  0.16642732    -1.13910
O255        O  0.36905927  0.80975462  0.21450444    -0.76340
O256        O  0.42000269  0.89975330  0.21605872    -0.79830
O257        O  0.29178995  0.94417461  0.11775838    -0.80520
C258        C  0.40696386  0.85332264  0.23094480     0.94740
O259        O  0.42260553  0.89850513  0.11973311    -0.78470
O260        O  0.25581538  0.77256129  0.21501108    -0.83670
C261        C  0.22250086  0.78721981  0.10232308     0.97370
C262        C  0.22339039  0.78649252  0.23082244     1.03280
O263        O  0.21881077  0.82722429  0.11685713    -0.79310
C264        C  0.40743158  0.85295341  0.10221591     1.01580
Fe265      Fe  0.52730735  0.58319475  0.49986991     1.65780
Fe266      Fe  0.47713542  0.66751053  0.50009330     1.73250
Fe267      Fe  0.61853759  0.72046597  0.49972584     1.54410
O268        O  0.64526537  0.68787265  0.54966629    -0.83050
O269        O  0.51108003  0.72462630  0.45206723    -0.81350
O270        O  0.58245049  0.60026237  0.54641860    -0.85550
O271        O  0.58226424  0.60017796  0.45329486    -0.80410
O272        O  0.60193221  0.76123223  0.54895689    -0.82180
O273        O  0.43477388  0.61124490  0.45050688    -0.84930
C274        C  0.62383116  0.63905419  0.43615920     0.95840
C275        C  0.62399739  0.63921090  0.56356254     1.03280
O276        O  0.54126265  0.65752182  0.49989542    -1.13910
O277        O  0.43495597  0.61112454  0.54948366    -0.76340
O278        O  0.47070521  0.55746514  0.54811344    -0.79830
O279        O  0.64516250  0.68770985  0.44998358    -0.80520
C280        C  0.43879190  0.57151713  0.56432902     0.94740
O281        O  0.47055818  0.55758708  0.45165131    -0.78470
O282        O  0.51154627  0.72442088  0.54833385    -0.83670
C283        C  0.55737631  0.75634210  0.43564843     0.97360
C284        C  0.55810475  0.75660894  0.56418057     1.03280
O285        O  0.60134141  0.76061705  0.45026604    -0.79310
C286        C  0.43861564  0.57167481  0.43549746     1.01580
Fe287      Fe  0.39508246  0.45096895  0.33322418     1.65780
Fe288      Fe  0.31077007  0.50114884  0.66634989     1.73250
Fe289      Fe  0.25780576  0.35974965  0.66670524     1.54410
O290        O  0.29037176  0.33301987  0.61674816    -0.83050
O291        O  0.25360770  0.46717426  0.38100696    -0.81350
O292        O  0.37800058  0.39576839  0.62004935    -0.85550
O293        O  0.37810733  0.39606585  0.37984305    -0.80410
O294        O  0.21703641  0.37638719  0.61748872    -0.82180
O295        O  0.36698952  0.54346667  0.38263393    -0.84930
C296        C  0.33923420  0.35447249  0.39695403     0.95840
C297        C  0.33904466  0.35424565  0.60288432     1.03280
O298        O  0.32075483  0.43702000  0.66653871    -1.13910
O299        O  0.36720362  0.54336861  0.61699556    -0.76340
O300        O  0.42077142  0.50750950  0.61826869    -0.79830
O301        O  0.29058395  0.33311081  0.38309770    -0.80520
C302        C  0.40675909  0.53947817  0.60210003     0.94740
O303        O  0.42073046  0.50777934  0.38140146    -0.78470
O304        O  0.25390593  0.46677726  0.61807854    -0.83670
C305        C  0.22191198  0.42088666  0.39744246     0.97360
C306        C  0.22169565  0.42022149  0.60224533     1.03280
O307        O  0.21766366  0.37692670  0.38284699    -0.79310
C308        C  0.40660676  0.53967465  0.39759726     1.01580
Fe309      Fe  0.04771070  0.45129169  0.49999179     1.65780
Fe310      Fe  0.18231749  0.50108763  0.50017430     1.73250
Fe311      Fe  0.09311492  0.35996956  0.49975501     1.54410
O312        O  0.03227176  0.33290321  0.54861945    -0.83050
O313        O  0.20430129  0.46773914  0.45093642    -0.81350
O314        O  0.01144048  0.39860838  0.54827564    -0.85550
O315        O  0.00707184  0.39421238  0.45528477    -0.80410
O316        O  0.14929367  0.37630944  0.55006753    -0.82180
O317        O  0.16808537  0.54452676  0.45198584    -0.84930
C318        C  0.00586936  0.35419557  0.43668981     0.95840
C319        C  0.00711952  0.35573040  0.56409776     1.03280
O320        O  0.10791488  0.43716907  0.49996549    -1.13910
O321        O  0.16874649  0.54191212  0.55087668    -0.76340
O322        O  0.08004708  0.51022975  0.54634060    -0.79830
O323        O  0.03517924  0.33441339  0.44886950    -0.80520
C324        C  0.12557154  0.54002010  0.56415031     0.94740
O325        O  0.07812181  0.50532969  0.45007717    -0.78470
O326        O  0.20571367  0.46617311  0.54710254    -0.83670
C327        C  0.19040904  0.42113400  0.43555211     0.97370
C328        C  0.19003563  0.41999110  0.56408487     1.03280
O329        O  0.15173506  0.37717913  0.45130696    -0.79310
C330        C  0.12462164  0.53882264  0.43538569     1.01580
Fe331      Fe  0.52705707  0.93060218  0.33311064     1.65780
Fe332      Fe  0.47722838  0.79599410  0.66622085     1.73250
Fe333      Fe  0.61835446  0.88516488  0.66670508     1.54420
O334        O  0.64546565  0.94602123  0.61785522    -0.83050
O335        O  0.51053816  0.77396535  0.38213499    -0.81350
O336        O  0.57976989  0.96687192  0.61818133    -0.85550
O337        O  0.58411037  0.97121528  0.37782625    -0.80410
O338        O  0.60202850  0.82899726  0.61637819    -0.82180
O339        O  0.43377072  0.81020752  0.38106372    -0.84930
C340        C  0.62410021  0.97239315  0.39644506     0.95840
C341        C  0.62265158  0.97118212  0.60237041     1.03280
O342        O  0.54115928  0.87038454  0.66646394    -1.13910
O343        O  0.43645134  0.80962875  0.61550784    -0.76340
O344        O  0.46813479  0.89831942  0.62008153    -0.79830
O345        O  0.64388032  0.94307571  0.38427858    -0.80520
C346        C  0.43835240  0.85281465  0.60225081     0.94740
O347        O  0.47300229  0.90016835  0.38301355    -0.78470
O348        O  0.51215252  0.77261263  0.61930086    -0.83670
C349        C  0.55713559  0.78784819  0.39753846     0.97370
C350        C  0.55834177  0.78827460  0.60233896     1.03280
O351        O  0.60110383  0.82652776  0.38180462    -0.79310
C352        C  0.43949501  0.85366770  0.39768553     1.01580
Fe353      Fe  0.93192943  0.39397634  0.33338602     1.65780
Fe354      Fe  0.79711512  0.30974441  0.66702919     1.73250
Fe355      Fe  0.88544712  0.25692382  0.66627105     1.54420
O356        O  0.94378058  0.28913220  0.61576703    -0.83050
O357        O  0.77387011  0.25182207  0.38096428    -0.81350
O358        O  0.97163892  0.37710581  0.62158531    -0.85550
O359        O  0.96836176  0.37699754  0.38137022    -0.80410
O360        O  0.82714122  0.21638239  0.61755790    -0.82180
O361        O  0.81126601  0.36472414  0.38401237    -0.84930
C362        C  0.97187918  0.33802279  0.39735151     0.95840
C363        C  0.97296819  0.33817233  0.60331488     1.03280
O364        O  0.87129507  0.31975355  0.66666768    -1.13910
O365        O  0.81148089  0.36712834  0.61852815    -0.76340
O366        O  0.90146762  0.41823119  0.61713778    -0.79830
O367        O  0.94590033  0.28992130  0.38206644    -0.80520
C368        C  0.85505690  0.40512959  0.60217637     0.94740
O369        O  0.90029378  0.42065845  0.38013250    -0.78470
O370        O  0.77429403  0.25390103  0.61811946    -0.83670
C371        C  0.78898291  0.22064527  0.39743625     0.97360
C372        C  0.78827688  0.22153117  0.60227075     1.03280
O373        O  0.82895195  0.21691904  0.38286519    -0.79310
C374        C  0.85471278  0.40554143  0.39757449     1.01580
Fe375      Fe  0.58431296  0.04630183  0.49979523     1.65780
Fe376      Fe  0.66850799  0.18110917  0.49938272     1.73250
Fe377      Fe  0.72138233  0.09283148  0.50016884     1.54420
O378        O  0.68925621  0.03457448  0.55072843    -0.83050
O379        O  0.72644241  0.20436690  0.45213107    -0.81350
O380        O  0.60125614  0.00656717  0.54484425    -0.85550
O381        O  0.60126587  0.00992382  0.45173776    -0.80410
O382        O  0.76196508  0.15119862  0.54882538    -0.82180
O383        O  0.61353713  0.16688719  0.44904326    -0.84930
C384        C  0.64024359  0.00637394  0.43578588     0.95840
C385        C  0.64021097  0.00531285  0.56314560     1.03280
O386        O  0.65852964  0.10694945  0.49978557    -1.13910
O387        O  0.61110005  0.16676133  0.54785656    -0.76340
O388        O  0.56017437  0.07676535  0.54946811    -0.79830
O389        O  0.68833552  0.03231128  0.45110028    -0.80520
C390        C  0.57321806  0.12320603  0.56433062     0.94740
O391        O  0.55747589  0.07790626  0.45313625    -0.78470
O392        O  0.72434556  0.20395744  0.54831007    -0.83670
C393        C  0.75759439  0.18924421  0.43563234     0.97370
C394        C  0.75676683  0.19002654  0.56413251     1.03280
O395        O  0.76131381  0.14926390  0.45018470    -0.79310
C396        C  0.57263077  0.12344470  0.43559618     1.01580
Fe397      Fe  0.93239131  0.52520986  0.49998745     1.65780
Fe398      Fe  0.79777498  0.47540278  0.50019753     1.73250
Fe399      Fe  0.88698353  0.61653985  0.49974602     1.54410
O400        O  0.94773939  0.64360303  0.54866819    -0.83050
O401        O  0.77572108  0.50878684  0.45102875    -0.81350
O402        O  0.96884350  0.57809842  0.54812065    -0.85550
O403        O  0.97283225  0.58209157  0.45511517    -0.80410
O404        O  0.83072412  0.60018313  0.55000630    -0.82180
O405        O  0.81192804  0.43200880  0.45193511    -0.84930
C406        C  0.97416925  0.62222562  0.43661655     0.95840
C407        C  0.97305251  0.62088724  0.56403009     1.03280
O408        O  0.87218391  0.53933080  0.49997051    -1.13910
O409        O  0.81139696  0.43450964  0.55082662    -0.76340
O410        O  0.90016523  0.46647719  0.54649629    -0.79830
O411        O  0.94502273  0.64214733  0.44891653    -0.80520
C412        C  0.85460515  0.43655122  0.56420810     0.94740
O413        O  0.90187014  0.47096000  0.45022080    -0.78470
O414        O  0.77445532  0.51028347  0.54719397    -0.83670
C415        C  0.78968172  0.55537432  0.43556884     0.97360
C416        C  0.79006476  0.55648702  0.56410253     1.03280
O417        O  0.82843861  0.59933001  0.45124249    -0.79310
C418        C  0.85538451  0.43758435  0.43543858     1.01580
Fe419      Fe  0.45307440  0.04586867  0.33310670     1.65780
Fe420      Fe  0.50289096  0.18046543  0.66624378     1.73250
Fe421      Fe  0.36178524  0.09130244  0.66669656     1.54410
O422        O  0.33467120  0.03035728  0.61790554    -0.83050
O423        O  0.46961683  0.20242667  0.38222601    -0.81350
O424        O  0.40056868  0.00978277  0.61802556    -0.85550
O425        O  0.39582228  0.00505542  0.37765558    -0.80410
O426        O  0.37809374  0.14738848  0.61631679    -0.82180
O427        O  0.54639271  0.16617384  0.38101375    -0.84930
C428        C  0.35595223  0.00401474  0.39637178     0.95840
C429        C  0.35759689  0.00535883  0.60230326     1.03280
O430        O  0.43896976  0.10608227  0.66646928    -1.13910
O431        O  0.54359683  0.16687973  0.61545711    -0.76340
O432        O  0.51220383  0.07826094  0.62024060    -0.79830
O433        O  0.33631340  0.03349590  0.38432536    -0.80520
C434        C  0.54184777  0.12372839  0.60230974     0.94740
O435        O  0.50691659  0.07619316  0.38315756    -0.78470
O436        O  0.46793309  0.20392426  0.61939238    -0.83670
C437        C  0.42300204  0.18861192  0.39755411     0.97360
C438        C  0.42176561  0.18819395  0.60235667     1.03280
O439        O  0.37903520  0.15001430  0.38173977    -0.79310
C440        C  0.54054062  0.12270702  0.39773886     1.01580
Fe441      Fe  0.58500576  0.52549322  0.33324324     1.65780
Fe442      Fe  0.66932797  0.47532776  0.66636675     1.73250
Fe443      Fe  0.72228137  0.61672441  0.66670203     1.54420
O444        O  0.68969053  0.64344254  0.61675919    -0.83050
O445        O  0.72645928  0.50930140  0.38104736    -0.81350
O446        O  0.60207128  0.58065826  0.62004306    -0.85550
O447        O  0.60199177  0.58042577  0.37983617    -0.80410
O448        O  0.76303626  0.60009780  0.61747404    -0.82180
O449        O  0.61308459  0.43298505  0.38263303    -0.84930
C450        C  0.64087008  0.62200786  0.39695367     0.95840
C451        C  0.64102074  0.62219200  0.60288412     1.03280
O452        O  0.65933600  0.53945049  0.66654870    -1.13910
O453        O  0.61291988  0.43312468  0.61699198    -0.76340
O454        O  0.55929445  0.46891722  0.61831470    -0.79830
O455        O  0.68952153  0.64335748  0.38310669    -0.80520
C456        C  0.57333299  0.43698098  0.60212249     0.94740
O457        O  0.55938358  0.46871853  0.38144642    -0.78470
O458        O  0.72622165  0.50971628  0.61811713    -0.83670
C459        C  0.75817555  0.55559987  0.39745600     0.97360
C460        C  0.75840698  0.55626573  0.60225996     1.03280
O461        O  0.76244817  0.59955771  0.38282957    -0.79310
C462        C  0.57349092  0.43679974  0.39762043     1.01580
Fe463      Fe  0.45278326  0.39326292  0.49988867     1.65780
Fe464      Fe  0.50297029  0.30895724  0.50011080     1.73250
Fe465      Fe  0.36156565  0.25599080  0.49972337     1.54420
O466        O  0.33482667  0.28855957  0.54967826    -0.83050
O467        O  0.46902455  0.25181066  0.45210611    -0.81350
O468        O  0.39760498  0.37617968  0.54641193    -0.85550
O469        O  0.39785635  0.37629116  0.45328753    -0.80410
O470        O  0.37818199  0.21520963  0.54894282    -0.82180
O471        O  0.54530640  0.36519929  0.45050524    -0.84930
C472        C  0.35627848  0.33742025  0.43615804     0.95840
C473        C  0.35606957  0.33722473  0.56356258     1.03280
O474        O  0.43883697  0.31893876  0.49990593    -1.13910
O475        O  0.54516624  0.36536899  0.54948059    -0.76340
O476        O  0.50935057  0.41897101  0.54815952    -0.79830
O477        O  0.33493495  0.28876554  0.44999148    -0.80520
C478        C  0.54129640  0.40494533  0.56435165     0.94740
O479        O  0.50956865  0.41889743  0.45169626    -0.78470
O480        O  0.46857646  0.25207613  0.54837305    -0.83670
C481        C  0.42273915  0.22011507  0.43566060     0.97370
C482        C  0.42201169  0.21986265  0.56419564     1.03280
O483        O  0.37877189  0.21586415  0.45024735    -0.79310
C484        C  0.54148768  0.40479342  0.43552043     1.01580
Fe485      Fe  0.04817172  0.58253041  0.33330036     1.65780
Fe486      Fe  0.18298660  0.66674258  0.66703764     1.73250
Fe487      Fe  0.09467507  0.71959035  0.66626927     1.54420
O488        O  0.03634697  0.68742976  0.61575587    -0.83050
O489        O  0.20620807  0.72462890  0.38099635    -0.81470
O490        O  0.00853105  0.59945822  0.62148173    -0.85550
O491        O  0.01168486  0.59947451  0.38126500    -0.80410
O492        O  0.15299726  0.76013721  0.61756668    -0.82180
O493        O  0.16877513  0.61172049  0.38399863    -0.84930
C494        C  0.00818270  0.63844038  0.39728658     0.95840
C495        C  0.00719223  0.63840777  0.60325221     1.03280
O496        O  0.10881299  0.65674942  0.66664420    -1.13910
O497        O  0.16866139  0.60939390  0.61851459    -0.76340
O498        O  0.07867609  0.55831927  0.61705745    -0.79830
O499        O  0.03421070  0.68656828  0.38205594    -0.80520
C500        C  0.12509783  0.57142089  0.60212422     0.94740
O501        O  0.07974994  0.55578705  0.38005809    -0.78470
O502        O  0.20585088  0.72262333  0.61815174    -0.83670
C503        C  0.19110999  0.75581985  0.39746001     0.97360
C504        C  0.19187155  0.75499318  0.60229476     1.03280
O505        O  0.15116179  0.75957147  0.38287352    -0.79310
C506        C  0.12531633  0.57088882  0.39752650     1.01580
Fe507      Fe  0.39582390  0.93016807  0.49971006     1.65780
Fe508      Fe  0.31160789  0.79536084  0.49939038     1.73250
Fe509      Fe  0.25876243  0.88366035  0.50016686     1.54420
O510        O  0.29093655  0.94192258  0.55071733    -0.83050
O511        O  0.25363884  0.77208140  0.45216260    -0.81350
O512        O  0.37893792  0.96997019  0.54474179    -0.85550
O513        O  0.37883772  0.96649427  0.45163411    -0.80410
O514        O  0.21818474  0.82530946  0.54883398    -0.82180
O515        O  0.36653723  0.80952271  0.44902998    -0.84930
C516        C  0.33985107  0.97005833  0.43572158     0.95840
C517        C  0.33999957  0.97121591  0.56308368     1.03280
O518        O  0.32160321  0.86952737  0.49976180    -1.13910
O519        O  0.36905053  0.80974727  0.54784203    -0.76340
O520        O  0.42000477  0.89974481  0.54938731    -0.79830
O521        O  0.29178525  0.94416884  0.45108931    -0.80520
C522        C  0.40696096  0.85331488  0.56427761     0.94740
O523        O  0.42259872  0.89850667  0.45306124    -0.78470
O524        O  0.25580791  0.77255607  0.54834165    -0.83670
C525        C  0.22250066  0.78721863  0.43565611     0.97370
C526        C  0.22338744  0.78649126  0.56415626     1.03280
O527        O  0.21880627  0.82721929  0.45019365    -0.79310
C528        C  0.40742894  0.85295373  0.43554803     1.01580
Fe529      Fe  0.52730866  0.58319493  0.83320317     1.65780
Fe530      Fe  0.47713755  0.66751128  0.83342700     1.73250
Fe531      Fe  0.61853959  0.72046611  0.83305886     1.54410
O532        O  0.64526700  0.68787304  0.88299947    -0.83050
O533        O  0.51108295  0.72462779  0.78540151    -0.81350
O534        O  0.58245249  0.60026265  0.87975133    -0.85550
O535        O  0.58226461  0.60017757  0.78662757    -0.80410
O536        O  0.60193436  0.76123298  0.88228966    -0.82180
O537        O  0.43477619  0.61124654  0.78383996    -0.84930
C538        C  0.62383175  0.63905347  0.76949193     0.95840
C539        C  0.62399910  0.63921128  0.89689553     1.03280
O540        O  0.54126447  0.65752217  0.83322873    -1.13910
O541        O  0.43495731  0.61112462  0.88281672    -0.76340
O542        O  0.47070731  0.55746591  0.88144727    -0.79830
O543        O  0.64516396  0.68770912  0.78331665    -0.80520
C544        C  0.43879358  0.57151759  0.89766246     0.94740
O545        O  0.47055869  0.55758716  0.78498502    -0.78470
O546        O  0.51154821  0.72442044  0.88166846    -0.83670
C547        C  0.55737905  0.75634288  0.76898209     0.97360
C548        C  0.55810698  0.75660894  0.89751442     1.03280
O549        O  0.60134409  0.76061724  0.78359901    -0.79310
C550        C  0.43861693  0.57167572  0.76883085     1.01580
Fe551      Fe  0.39508254  0.45096980  0.66655716     1.65780
Fe552      Fe  0.31077106  0.50114910  0.99968286     1.73250
Fe553      Fe  0.25780680  0.35975003  0.00003850     1.54410
O554        O  0.29037283  0.33302057  0.95008145    -0.83050
O555        O  0.25360803  0.46717504  0.71434124    -0.81350
O556        O  0.37800174  0.39576906  0.95338251    -0.85550
O557        O  0.37810797  0.39606696  0.71317620    -0.80410
O558        O  0.21703718  0.37638754  0.95082219    -0.82180
O559        O  0.36699000  0.54346738  0.71596798    -0.84930
C560        C  0.33923496  0.35447373  0.73028748     0.95840
C561        C  0.33904567  0.35424643  0.93621752     1.03280
O562        O  0.32075587  0.43702034  0.99987188    -1.13910
O563        O  0.36720494  0.54336898  0.95032870    -0.76340
O564        O  0.42077286  0.50751005  0.95160219    -0.79830
O565        O  0.29058453  0.33311202  0.71643153    -0.80520
C566        C  0.40676057  0.53947865  0.93543339     0.94740
O567        O  0.42073146  0.50778066  0.71473428    -0.78470
O568        O  0.25390722  0.46677769  0.95141143    -0.83670
C569        C  0.22191224  0.42088742  0.73077665     0.97360
C570        C  0.22169650  0.42022182  0.93557864     1.03280
O571        O  0.21766390  0.37692750  0.71618109    -0.79310
C572        C  0.40660772  0.53967569  0.73093066     1.01580
Fe573      Fe  0.04771020  0.45129137  0.83332570     1.65780
Fe574      Fe  0.18231697  0.50108775  0.83350831     1.73250
Fe575      Fe  0.09311508  0.35996983  0.83308934     1.54410
O576        O  0.03227082  0.33290322  0.88195313    -0.83050
O577        O  0.20430040  0.46773999  0.78426973    -0.81350
O578        O  0.01144136  0.39860972  0.88161059    -0.85550
O579        O  0.00707025  0.39421052  0.78861995    -0.80410
O580        O  0.14929305  0.37630966  0.88340227    -0.82180
O581        O  0.16808405  0.54452740  0.78532072    -0.84930
C582        C  0.00586952  0.35419497  0.77002425     0.95840
C583        C  0.00711952  0.35573111  0.89743209     1.03280
O584        O  0.10791461  0.43716908  0.83329961    -1.13910
O585        O  0.16874586  0.54191102  0.88421141    -0.76340
O586        O  0.08004704  0.51023111  0.87967319    -0.79830
O587        O  0.03518071  0.33441406  0.78220323    -0.80520
C588        C  0.12557110  0.54002025  0.89748389     0.94740
O589        O  0.07812030  0.50532757  0.78341002    -0.78470
O590        O  0.20571426  0.46617300  0.88043563    -0.83670
C591        C  0.19040916  0.42113473  0.76888624     0.97370
C592        C  0.19003592  0.41999123  0.89741858     1.03280
O593        O  0.15173618  0.37717974  0.78464191    -0.79310
C594        C  0.12462022  0.53882190  0.76871957     1.01580
Fe595      Fe  0.52705212  0.93059758  0.66644382     1.65780
Fe596      Fe  0.47723027  0.79599565  0.99955449     1.73250
Fe597      Fe  0.61835548  0.88516422  0.00003782     1.54420
O598        O  0.64546911  0.94602808  0.95119277    -0.83050
O599        O  0.51054056  0.77396223  0.71546687    -0.81350
O600        O  0.57976023  0.96686071  0.95150529    -0.85550
O601        O  0.58410072  0.97120892  0.71116249    -0.80410
O602        O  0.60203060  0.82900300  0.94970676    -0.82180
O603        O  0.43377052  0.81019984  0.71440001    -0.84930
C604        C  0.62409435  0.97239233  0.72977919     0.95840
C605        C  0.62264807  0.97117886  0.93570054     1.03280
O606        O  0.54116133  0.87038508  0.99979701    -1.13910
O607        O  0.43645989  0.80962828  0.94883584    -0.76340
O608        O  0.46812446  0.89831434  0.95342382    -0.79830
O609        O  0.64387890  0.94307932  0.71761078    -0.80520
C610        C  0.43835106  0.85281209  0.93558622     0.94740
O611        O  0.47299345  0.90016000  0.71634392    -0.78470
O612        O  0.51215704  0.77260823  0.95263995    -0.83670
C613        C  0.55713795  0.78784839  0.73087198     0.97370
C614        C  0.55834477  0.78827473  0.93567300     1.03280
O615        O  0.60110548  0.82653083  0.71513987    -0.79310
C616        C  0.43949091  0.85365960  0.73101908     1.01580
Fe617      Fe  0.93193120  0.39397682  0.66671997     1.65780
Fe618      Fe  0.79711359  0.30974435  0.00036304     1.73250
Fe619      Fe  0.88544601  0.25692418  0.99960445     1.54420
O620        O  0.94377944  0.28913248  0.94910051    -0.83050
O621        O  0.77387201  0.25182337  0.71429856    -0.81350
O622        O  0.97163825  0.37710605  0.95491951    -0.85550
O623        O  0.96836390  0.37699771  0.71470377    -0.80410
O624        O  0.82714025  0.21638276  0.95089140    -0.82180
O625        O  0.81126754  0.36472544  0.71734539    -0.84930
C626        C  0.97188031  0.33802264  0.73068560     0.95840
C627        C  0.97296763  0.33817272  0.93664892     1.03280
O628        O  0.87129365  0.31975369  0.00000129    -1.13910
O629        O  0.81147918  0.36712872  0.95186233    -0.76340
O630        O  0.90146602  0.41823037  0.95047052    -0.79830
O631        O  0.94590088  0.28992104  0.71540099    -0.80520
C632        C  0.85505509  0.40512917  0.93550974     0.94740
O633        O  0.90029567  0.42065853  0.71346694    -0.78470
O634        O  0.77429303  0.25390139  0.95145321    -0.83670
C635        C  0.78898418  0.22064595  0.73077031     0.97360
C636        C  0.78827584  0.22153168  0.93560441     1.03280
O637        O  0.82895272  0.21691898  0.71619902    -0.79310
C638        C  0.85471433  0.40554221  0.73090812     1.01580
Fe639      Fe  0.58431241  0.04630554  0.83312983     1.65780
Fe640      Fe  0.66850909  0.18111190  0.83271612     1.73250
Fe641      Fe  0.72138069  0.09283185  0.83350231     1.54420
O642        O  0.68925593  0.03457735  0.88406342    -0.83050
O643        O  0.72644655  0.20437041  0.78546687    -0.81350
O644        O  0.60125557  0.00656466  0.87817317    -0.85550
O645        O  0.60126275  0.00993107  0.78506804    -0.80410
O646        O  0.76196589  0.15120119  0.88215724    -0.82180
O647        O  0.61354257  0.16689191  0.78237425    -0.84930
C648        C  0.64023885  0.00637600  0.76911871     0.95840
C649        C  0.64020979  0.00531150  0.89647671     1.03280
O650        O  0.65852939  0.10695173  0.83311935    -1.13910
O651        O  0.61109788  0.16676422  0.88118744    -0.76340
O652        O  0.56017989  0.07676768  0.88280817    -0.79830
O653        O  0.68832990  0.03230856  0.78443571    -0.80520
C654        C  0.57322109  0.12320949  0.89766674     0.94740
O655        O  0.55747246  0.07791348  0.78647546    -0.78470
O656        O  0.72434305  0.20395722  0.88164540    -0.83670
C657        C  0.75759547  0.18924498  0.76896634     0.97370
C658        C  0.75676593  0.19002729  0.89746618     1.03280
O659        O  0.76131120  0.14926176  0.78351660    -0.79310
C660        C  0.57263188  0.12345055  0.76893115     1.01580
Fe661      Fe  0.93239036  0.52520990  0.83332140     1.65780
Fe662      Fe  0.79777419  0.47540268  0.83353069     1.73250
Fe663      Fe  0.88698243  0.61653955  0.83307923     1.54410
O664        O  0.94774015  0.64360370  0.88200030    -0.83050
O665        O  0.77572154  0.50878562  0.78436032    -0.81350
O666        O  0.96883945  0.57809562  0.88145656    -0.85550
O667        O  0.97283433  0.58209430  0.78845138    -0.80410
O668        O  0.83072481  0.60018343  0.88334053    -0.82180
O669        O  0.81192881  0.43200764  0.78526980    -0.84930
C670        C  0.97416870  0.62222607  0.76995089     0.95840
C671        C  0.97305064  0.62088615  0.89736427     1.03280
O672        O  0.87218293  0.53933069  0.83330392    -1.13910
O673        O  0.81139533  0.43451111  0.88416140    -0.76340
O674        O  0.90016258  0.46647432  0.87982801    -0.79830
O675        O  0.94501947  0.64214552  0.78224873    -0.80520
C676        C  0.85460304  0.43655048  0.89754133     0.94740
O677        O  0.90187128  0.47096310  0.78355285    -0.78470
O678        O  0.77445326  0.51028438  0.88052571    -0.83670
C679        C  0.78968091  0.55537327  0.76890149     0.97360
C680        C  0.79006415  0.55648762  0.89743557     1.03280
O681        O  0.82843603  0.59932912  0.78457662    -0.79310
C682        C  0.85538562  0.43758537  0.76877194     1.01580
Fe683      Fe  0.45307791  0.04587219  0.66644021     1.65780
Fe684      Fe  0.50289096  0.18046476  0.99957737     1.73250
Fe685      Fe  0.36178710  0.09130398  0.00002944     1.54410
O686        O  0.33466934  0.03034647  0.95124667    -0.83050
O687        O  0.46961576  0.20242855  0.71555909    -0.81350
O688        O  0.40058867  0.00980221  0.95134368    -0.85550
O689        O  0.39582807  0.00505903  0.71099001    -0.80410
O690        O  0.37809332  0.14737937  0.94964252    -0.82180
O691        O  0.54639325  0.16617876  0.71434846    -0.84930
C692        C  0.35595612  0.00401487  0.72970570     0.95840
C693        C  0.35760641  0.00536486  0.93563190     1.03280
O694        O  0.43896999  0.10608280  0.99980241    -1.13910
O695        O  0.54358579  0.16688225  0.94878144    -0.76340
O696        O  0.51222450  0.07827142  0.95358920    -0.79830
O697        O  0.33631499  0.03349415  0.71765943    -0.80520
C698        C  0.54185300  0.12373434  0.93564656     0.94740
O699        O  0.50692151  0.07619843  0.71649013    -0.78470
O700        O  0.46792849  0.20393238  0.95273513    -0.83670
C701        C  0.42300107  0.18861198  0.73088819     0.97360
C702        C  0.42176354  0.18819422  0.93569126     1.03280
O703        O  0.37903451  0.15001291  0.71507477    -0.79310
C704        C  0.54054291  0.12271237  0.73107288     1.01580
Fe705      Fe  0.58500531  0.52549168  0.66657601     1.65780
Fe706      Fe  0.66932851  0.47532878  0.99970038     1.73250
Fe707      Fe  0.72228203  0.61672535  0.00003593     1.54420
O708        O  0.68969157  0.64344348  0.95009294    -0.83050
O709        O  0.72645910  0.50930033  0.71437956    -0.81350
O710        O  0.60207233  0.58065901  0.95337620    -0.85550
O711        O  0.60199172  0.58042417  0.71316925    -0.80410
O712        O  0.76303683  0.60009851  0.95080791    -0.82180
O713        O  0.61308458  0.43298351  0.71596572    -0.84930
C714        C  0.64087012  0.62200671  0.73028628     0.95840
C715        C  0.64102199  0.62219266  0.93621740     1.03280
O716        O  0.65933662  0.53945151  0.99988235    -1.13910
O717        O  0.61292026  0.43312538  0.95032577    -0.76340
O718        O  0.55929510  0.46891819  0.95164816    -0.79830
O719        O  0.68952129  0.64335660  0.71643868    -0.80520
C720        C  0.57333350  0.43698178  0.93545611     0.94740
O721        O  0.55938346  0.46871683  0.71477917    -0.78470
O722        O  0.72622163  0.50971690  0.95145044    -0.83670
C723        C  0.75817505  0.55559882  0.73078838     0.97360
C724        C  0.75840695  0.55626636  0.93559336     1.03280
O725        O  0.76244753  0.59955660  0.71616193    -0.79310
C726        C  0.57349100  0.43679821  0.73095329     1.01580
Fe727      Fe  0.45278416  0.39326347  0.83322196     1.65780
Fe728      Fe  0.50297016  0.30895701  0.83344511     1.73250
Fe729      Fe  0.36156567  0.25599148  0.83305681     1.54420
O730        O  0.33482767  0.28856015  0.88301213    -0.83050
O731        O  0.46902332  0.25180888  0.78544142    -0.81350
O732        O  0.39760506  0.37618056  0.87974452    -0.85550
O733        O  0.39785829  0.37629210  0.78662011    -0.80410
O734        O  0.37818161  0.21520904  0.88227544    -0.82180
O735        O  0.54530581  0.36519747  0.78383826    -0.84930
C736        C  0.35627955  0.33742152  0.76949133     0.95840
C737        C  0.35607019  0.33722553  0.89689574     1.03280
O738        O  0.43883723  0.31893909  0.83323961    -1.13910
O739        O  0.54516725  0.36537013  0.88281388    -0.76340
O740        O  0.50935048  0.41897116  0.88149351    -0.79830
O741        O  0.33493498  0.28876707  0.78332556    -0.80520
C742        C  0.54129686  0.40494600  0.89768530     0.94740
O743        O  0.50957036  0.41889761  0.78503015    -0.78470
O744        O  0.46857643  0.25207778  0.88170889    -0.83670
C745        C  0.42273815  0.22011471  0.76899483     0.97370
C746        C  0.42201108  0.21986328  0.89753003     1.03280
O747        O  0.37877110  0.21586519  0.78358043    -0.79310
C748        C  0.54148815  0.40479237  0.76885372     1.01580
Fe749      Fe  0.04817032  0.58252999  0.66663440     1.65780
Fe750      Fe  0.18298603  0.66674219  0.00037137     1.73250
Fe751      Fe  0.09467468  0.71959028  0.99960252     1.54420
O752        O  0.03634604  0.68742955  0.94908935    -0.83050
O753        O  0.20620684  0.72462867  0.71433081    -0.81470
O754        O  0.00853013  0.59945816  0.95481581    -0.85550
O755        O  0.01168336  0.59947395  0.71459927    -0.80410
O756        O  0.15299665  0.76013674  0.95089981    -0.82180
O757        O  0.16877372  0.61172017  0.71733293    -0.84930
C758        C  0.00818153  0.63844006  0.73062079     0.95840
C759        C  0.00719097  0.63840741  0.93658613     1.03280
O760        O  0.10881250  0.65674927  0.99997773    -1.13910
O761        O  0.16866065  0.60939364  0.95184830    -0.76340
O762        O  0.07867529  0.55831932  0.95039076    -0.79830
O763        O  0.03420949  0.68656787  0.71539010    -0.80520
C764        C  0.12509710  0.57142086  0.93545774     0.94740
O765        O  0.07974855  0.55578647  0.71339204    -0.78470
O766        O  0.20585060  0.72262322  0.95148602    -0.83670
C767        C  0.19110876  0.75581950  0.73079482     0.97360
C768        C  0.19187139  0.75499311  0.93562872     1.03280
O769        O  0.15116045  0.75957109  0.71620853    -0.79310
C770        C  0.12531493  0.57088829  0.73086054     1.01580
Fe771      Fe  0.39582514  0.93016431  0.83304248     1.65780
Fe772      Fe  0.31160680  0.79535813  0.83272492     1.73250
Fe773      Fe  0.25876491  0.88366071  0.83350130     1.54420
O774        O  0.29093986  0.94192086  0.88405310    -0.83050
O775        O  0.25363475  0.77207803  0.78549927    -0.81350
O776        O  0.37894129  0.96997397  0.87806842    -0.85550
O777        O  0.37883987  0.96648584  0.78496274    -0.80410
O778        O  0.21818459  0.82530816  0.88216686    -0.82180
O779        O  0.36653179  0.80951624  0.78236233    -0.84930
C780        C  0.33985474  0.97005578  0.76905408     0.95840
C781        C  0.34000450  0.97121892  0.89641387     1.03280
O782        O  0.32160397  0.86952530  0.83309570    -1.13910
O783        O  0.36905284  0.80974565  0.88117439    -0.76340
O784        O  0.42000252  0.89974369  0.88272433    -0.79830
O785        O  0.29179050  0.94417205  0.78442566    -0.80520
C786        C  0.40696039  0.85331327  0.89761269     0.94740
O787        O  0.42260032  0.89849825  0.78639801    -0.78470
O788        O  0.25581012  0.77255685  0.88167793    -0.83670
C789        C  0.22249959  0.78721807  0.76899107     0.97370
C790        C  0.22338828  0.78649112  0.89749072     1.03280
O791        O  0.21880887  0.82722165  0.78352671    -0.79310
C792        C  0.40742653  0.85294589  0.76888246     1.01580
loop_ 
_geom_bond_atom_site_label_1 
_geom_bond_atom_site_label_2 
_geom_bond_distance 
_geom_bond_site_symmetry_2 
_ccdc_geom_bond_type 
Fe1          O17   2.038       .  S
Fe1           O7   1.992       .  S
Fe1          O14   2.036       .  S
Fe1           O6   1.995       .  S
Fe1          O12   1.945       .  S
Fe2           O5   2.044       .  S
Fe2           O9   2.098       .  S
Fe2          O13   2.095       .  S
Fe2          O18   2.047       .  S
Fe2          O12   1.981       .  S
Fe3          O21   2.101       .  S
Fe3           O8   2.100       .  S
Fe3          O15   2.119       .  S
Fe3           O4   2.122       .  S
Fe3          O12   2.021       .  S
O4           C11   1.274       .  A
O5           C19   1.269       .  A
O6           C11   1.260       .  A
O7           C10   1.259       .  A
O8           C20   1.275       .  A
O9           C22   1.270       .  A
C10          O15   1.273       .  A
C10         C186   1.469       .  S
C11         C187   1.472       .  S
O13          C16   1.269       .  A
O14          C16   1.263       .  A
C16          C38   1.475       .  S
O17          C22   1.264       .  A
O18          C20   1.270       .  A
C19          O21   1.275       .  A
C19          C85   1.477       .  S
C20          C86   1.477       .  S
C22          C44   1.478       .  S
Fe23         O39   2.038   1_556  S
Fe23         O29   1.992   1_556  S
Fe23        O564   2.036       .  S
Fe23        O556   1.995       .  S
Fe23        O562   1.944       .  S
Fe24         O35   2.095       .  S
Fe24         O40   2.046       .  S
Fe24        O291   2.044       .  S
Fe24        O295   2.098       .  S
Fe24         O34   1.981       .  S
Fe25         O30   2.100       .  S
Fe25         O26   2.122       .  S
Fe25        O307   2.101       .  S
Fe25        O301   2.119       .  S
Fe25         O34   2.021       .  S
O26          C33   1.274       .  A
O27        Fe552   2.044   1_554  S
O27          C41   1.269       .  A
O28        Fe287   1.995       .  S
O28          C33   1.260       .  A
O29          C32   1.259       .  A
O30          C42   1.275       .  A
O31        Fe552   2.098   1_554  S
O31          C44   1.270       .  A
C32          O37   1.273       .  A
C32         C208   1.470       .  S
C33         C209   1.472       .  S
O34        Fe287   1.944       .  S
O35          C38   1.269       .  A
O36        Fe287   2.036       .  S
O36          C38   1.263       .  A
O37        Fe553   2.119       .  S
O39          C44   1.264       .  A
O40          C42   1.270       .  A
C41          O43   1.275       .  A
C41          C63   1.477       .  S
C42          C64   1.477       .  S
O43        Fe553   2.101       .  S
Fe45         O61   2.033       .  S
Fe45         O51   1.995       .  S
Fe45         O58   2.035       .  S
Fe45         O50   1.991       .  S
Fe45         O56   1.944       .  S
Fe46         O49   2.044       .  S
Fe46         O53   2.094       .  S
Fe46         O57   2.092       .  S
Fe46         O62   2.043       .  S
Fe46         O56   1.980       .  S
Fe47         O65   2.102       .  S
Fe47         O52   2.102       .  S
Fe47         O59   2.119       .  S
Fe47         O48   2.123       .  S
Fe47         O56   2.017       .  S
O48          C55   1.275       .  A
O49          C63   1.269       .  A
O50          C55   1.260       .  A
O51          C54   1.258       .  A
O52          C64   1.275       .  A
O53          C66   1.270       .  A
C54          O59   1.273       .  A
C54          C98   1.471   1_455  S
C55          C99   1.470   1_455  S
O57          C60   1.269       .  A
O58          C60   1.262       .  A
C60         C236   1.474       .  S
O61          C66   1.263       .  A
O62          C64   1.268       .  A
C63          O65   1.275       .  A
C66         C242   1.473       .  S
Fe67         O83   2.033   1_556  S
Fe67         O73   1.994   1_556  S
Fe67        O608   2.035       .  S
Fe67        O600   1.991       .  S
Fe67        O606   1.944       .  S
Fe68         O79   2.092       .  S
Fe68         O84   2.043       .  S
Fe68        O335   2.044       .  S
Fe68        O339   2.094       .  S
Fe68         O78   1.980       .  S
Fe69         O74   2.102       .  S
Fe69         O70   2.123       .  S
Fe69        O351   2.102       .  S
Fe69        O345   2.119       .  S
Fe69         O78   2.017       .  S
O70          C77   1.275       .  A
O71        Fe596   2.044   1_554  S
O71          C85   1.269       .  A
O72        Fe331   1.991       .  S
O72          C77   1.260       .  A
O73          C76   1.258       .  A
O74          C86   1.275       .  A
O75        Fe596   2.094   1_554  S
O75          C88   1.270       .  A
C76          O81   1.273       .  A
C76         C120   1.471   1_565  S
C77         C121   1.470   1_565  S
O78        Fe331   1.944       .  S
O79          C82   1.269       .  A
O80        Fe331   2.035       .  S
O80          C82   1.262       .  A
O81        Fe597   2.119       .  S
C82         C258   1.474       .  S
O83          C88   1.263       .  A
O84          C86   1.268       .  A
C85          O87   1.276       .  A
O87        Fe597   2.102       .  S
C88         C264   1.473       .  S
Fe89        O105   2.034       .  S
Fe89         O95   1.996       .  S
Fe89        O630   2.037   1_554  S
Fe89        O622   1.994   1_554  S
Fe89        O628   1.943       .  S
Fe90        O101   2.094       .  S
Fe90        O106   2.042       .  S
Fe90        O357   2.042       .  S
Fe90        O361   2.090       .  S
Fe90        O100   1.981       .  S
Fe91         O96   2.099       .  S
Fe91         O92   2.116       .  S
Fe91        O373   2.097       .  S
Fe91        O367   2.121       .  S
Fe91        O100   2.018       .  S
O92          C99   1.272       .  A
O93        Fe618   2.042       .  S
O93         C107   1.268       .  A
O94        Fe353   1.994       .  S
O94          C99   1.259       .  A
O95          C98   1.261       .  A
O96         C108   1.275       .  A
O97        Fe618   2.090       .  S
O97         C110   1.268       .  A
C98         O103   1.274       .  A
O100       Fe353   1.943       .  S
O101        C104   1.270       .  A
O102       Fe353   2.037       .  S
O102        C104   1.264       .  A
O103       Fe619   2.121   1_554  S
C104        C148   1.474       .  S
O105        C110   1.262       .  A
O106        C108   1.269       .  A
C107        O109   1.274       .  A
C107        C129   1.475       .  S
C108        C130   1.475       .  S
O109       Fe619   2.097   1_554  S
C110        C154   1.473       .  S
Fe111       O127   2.034       .  S
Fe111       O117   1.997       .  S
Fe111       O124   2.038       .  S
Fe111       O116   1.993       .  S
Fe111       O122   1.943       .  S
Fe112       O115   2.042       .  S
Fe112       O119   2.090       .  S
Fe112       O123   2.094       .  S
Fe112       O128   2.043       .  S
Fe112       O122   1.981       .  S
Fe113       O131   2.097       .  S
Fe113       O118   2.099       .  S
Fe113       O125   2.121       .  S
Fe113       O114   2.116       .  S
Fe113       O122   2.018       .  S
O114        C121   1.272       .  A
O115        C129   1.268       .  A
O116        C121   1.259       .  A
O117        C120   1.261       .  A
O118        C130   1.275       .  A
O119        C132   1.268       .  A
C120        O125   1.274       .  A
O123        C126   1.270       .  A
O124        C126   1.264       .  A
C126        C170   1.474       .  S
O127        C132   1.262       .  A
O128        C130   1.269       .  A
C129        O131   1.274       .  A
C132        C176   1.473       .  S
Fe133       O149   2.033       .  S
Fe133       O139   1.994       .  S
Fe133       O146   2.035       .  S
Fe133       O138   1.991       .  S
Fe133       O144   1.944       .  S
Fe134       O137   2.044       .  S
Fe134       O141   2.094       .  S
Fe134       O145   2.092       .  S
Fe134       O150   2.043       .  S
Fe134       O144   1.980       .  S
Fe135       O153   2.102       .  S
Fe135       O140   2.102       .  S
Fe135       O147   2.119       .  S
Fe135       O136   2.123       .  S
Fe135       O144   2.017       .  S
O136        C143   1.274       .  A
O137        C151   1.269       .  A
O138        C143   1.260       .  A
O139        C142   1.258       .  A
O140        C152   1.275       .  A
O141        C154   1.270       .  A
C142        O147   1.273       .  A
C142        C230   1.471   1_655  S
C143        C231   1.470   1_655  S
O145        C148   1.269       .  A
O146        C148   1.262       .  A
O149        C154   1.263       .  A
O150        C152   1.268       .  A
C151        O153   1.275       .  A
C151        C195   1.477       .  S
C152        C196   1.477       .  S
Fe155       O171   2.033   1_556  S
Fe155       O161   1.995   1_556  S
Fe155       O696   2.035       .  S
Fe155       O688   1.991       .  S
Fe155       O694   1.944       .  S
Fe156       O167   2.092       .  S
Fe156       O172   2.043       .  S
Fe156       O423   2.044       .  S
Fe156       O427   2.095       .  S
Fe156       O166   1.980       .  S
Fe157       O162   2.102       .  S
Fe157       O158   2.123       .  S
Fe157       O439   2.102       .  S
Fe157       O433   2.119       .  S
Fe157       O166   2.016       .  S
O158        C165   1.275       .  A
O159       Fe684   2.044   1_554  S
O159        C173   1.269       .  A
O160       Fe419   1.991       .  S
O160        C165   1.260       .  A
O161        C164   1.258       .  A
O162        C174   1.275       .  A
O163       Fe684   2.095   1_554  S
O163        C176   1.270       .  A
C164        O169   1.273       .  A
C164        C252   1.471   1_545  S
C165        C253   1.470   1_545  S
O166       Fe419   1.944       .  S
O167        C170   1.269       .  A
O168       Fe419   2.035       .  S
O168        C170   1.262       .  A
O169       Fe685   2.119       .  S
O171        C176   1.263       .  A
O172        C174   1.268       .  A
C173        O175   1.276       .  A
C173        C217   1.477       .  S
C174        C218   1.477       .  S
O175       Fe685   2.102       .  S
Fe177       O193   2.038   1_556  S
Fe177       O183   1.992   1_556  S
Fe177       O718   2.036       .  S
Fe177       O710   1.995       .  S
Fe177       O716   1.944       .  S
Fe178       O189   2.095       .  S
Fe178       O194   2.047       .  S
Fe178       O445   2.044       .  S
Fe178       O449   2.098       .  S
Fe178       O188   1.981       .  S
Fe179       O184   2.100       .  S
Fe179       O180   2.122       .  S
Fe179       O461   2.101       .  S
Fe179       O455   2.119       .  S
Fe179       O188   2.021       .  S
O180        C187   1.274       .  A
O181       Fe706   2.044   1_554  S
O181        C195   1.269       .  A
O182       Fe441   1.995       .  S
O182        C187   1.260       .  A
O183        C186   1.259       .  A
O184        C196   1.275       .  A
O185       Fe706   2.098   1_554  S
O185        C198   1.270       .  A
C186        O191   1.273       .  A
O188       Fe441   1.944       .  S
O189        C192   1.269       .  A
O190       Fe441   2.036       .  S
O190        C192   1.263       .  A
O191       Fe707   2.119       .  S
C192        C214   1.475       .  S
O193        C198   1.264       .  A
O194        C196   1.270       .  A
C195        O197   1.275       .  A
O197       Fe707   2.101       .  S
C198        C220   1.478       .  S
Fe199       O215   2.038       .  S
Fe199       O205   1.992       .  S
Fe199       O212   2.036       .  S
Fe199       O204   1.995       .  S
Fe199       O210   1.945       .  S
Fe200       O203   2.044       .  S
Fe200       O207   2.098       .  S
Fe200       O211   2.095       .  S
Fe200       O216   2.047       .  S
Fe200       O210   1.981       .  S
Fe201       O219   2.102       .  S
Fe201       O206   2.100       .  S
Fe201       O213   2.119       .  S
Fe201       O202   2.122       .  S
Fe201       O210   2.021       .  S
O202        C209   1.274       .  A
O203        C217   1.269       .  A
O204        C209   1.260       .  A
O205        C208   1.259       .  A
O206        C218   1.275       .  A
O207        C220   1.270       .  A
C208        O213   1.273       .  A
O211        C214   1.269       .  A
O212        C214   1.263       .  A
O215        C220   1.264       .  A
O216        C218   1.270       .  A
C217        O219   1.275       .  A
Fe221       O237   2.034   1_556  S
Fe221       O227   1.996   1_556  S
Fe221       O762   2.037       .  S
Fe221       O754   1.994       .  S
Fe221       O760   1.943       .  S
Fe222       O233   2.094       .  S
Fe222       O238   2.042       .  S
Fe222       O489   2.042       .  S
Fe222       O493   2.090       .  S
Fe222       O232   1.981       .  S
Fe223       O228   2.099       .  S
Fe223       O224   2.116       .  S
Fe223       O505   2.097       .  S
Fe223       O499   2.121       .  S
Fe223       O232   2.018       .  S
O224        C231   1.272       .  A
O225       Fe750   2.042       .  S
O225        C239   1.268       .  A
O226       Fe485   1.994       .  S
O226        C231   1.259       .  A
O227        C230   1.261       .  A
O228        C240   1.275       .  A
O229       Fe750   2.090       .  S
O229        C242   1.268       .  A
C230        O235   1.274       .  A
O232       Fe485   1.943       .  S
O233        C236   1.270       .  A
O234       Fe485   2.037       .  S
O234        C236   1.264       .  A
O235       Fe751   2.121   1_554  S
O237        C242   1.262       .  A
O238        C240   1.269       .  A
C239        O241   1.274       .  A
C239        C261   1.475       .  S
C240        C262   1.475       .  S
O241       Fe751   2.097   1_554  S
Fe243       O259   2.034       .  S
Fe243       O249   1.997       .  S
Fe243       O256   2.038       .  S
Fe243       O248   1.994       .  S
Fe243       O254   1.943       .  S
Fe244       O247   2.042       .  S
Fe244       O251   2.090       .  S
Fe244       O255   2.094       .  S
Fe244       O260   2.043       .  S
Fe244       O254   1.981       .  S
Fe245       O263   2.097       .  S
Fe245       O250   2.099       .  S
Fe245       O257   2.121       .  S
Fe245       O246   2.116       .  S
Fe245       O254   2.018       .  S
O246        C253   1.272       .  A
O247        C261   1.268       .  A
O248        C253   1.259       .  A
O249        C252   1.261       .  A
O250        C262   1.275       .  A
O251        C264   1.268       .  A
C252        O257   1.274       .  A
O255        C258   1.270       .  A
O256        C258   1.264       .  A
O259        C264   1.262       .  A
O260        C262   1.269       .  A
C261        O263   1.274       .  A
Fe265       O281   2.038       .  S
Fe265       O271   1.992       .  S
Fe265       O278   2.036       .  S
Fe265       O270   1.995       .  S
Fe265       O276   1.945       .  S
Fe266       O269   2.044       .  S
Fe266       O273   2.098       .  S
Fe266       O277   2.095       .  S
Fe266       O282   2.047       .  S
Fe266       O276   1.981       .  S
Fe267       O285   2.101       .  S
Fe267       O272   2.100       .  S
Fe267       O279   2.119       .  S
Fe267       O268   2.122       .  S
Fe267       O276   2.021       .  S
O268        C275   1.274       .  A
O269        C283   1.269       .  A
O270        C275   1.260       .  A
O271        C274   1.259       .  A
O272        C284   1.275       .  A
O273        C286   1.270       .  A
C274        O279   1.273       .  A
C274        C450   1.469       .  S
C275        C451   1.472       .  S
O277        C280   1.269       .  A
O278        C280   1.263       .  A
C280        C302   1.475       .  S
O281        C286   1.264       .  A
O282        C284   1.270       .  A
C283        O285   1.275       .  A
C283        C349   1.477       .  S
C284        C350   1.477       .  S
C286        C308   1.478       .  S
Fe287       O303   2.038       .  S
Fe287       O293   1.992       .  S
Fe288       O555   2.044       .  S
Fe288       O559   2.098       .  S
Fe288       O299   2.095       .  S
Fe288       O304   2.046       .  S
Fe288       O298   1.981       .  S
Fe289       O571   2.101       .  S
Fe289       O294   2.100       .  S
Fe289       O565   2.119       .  S
Fe289       O290   2.122       .  S
Fe289       O298   2.021       .  S
O290        C297   1.274       .  A
O291        C305   1.269       .  A
O292       Fe551   1.995       .  S
O292        C297   1.260       .  A
O293        C296   1.259       .  A
O294        C306   1.275       .  A
O295        C308   1.270       .  A
C296        O301   1.273       .  A
C296        C472   1.470       .  S
C297        C473   1.472       .  S
O298       Fe551   1.944       .  S
O299        C302   1.269       .  A
O300       Fe551   2.036       .  S
O300        C302   1.263       .  A
O303        C308   1.264       .  A
O304        C306   1.270       .  A
C305        O307   1.275       .  A
C305        C327   1.477       .  S
C306        C328   1.477       .  S
Fe309       O325   2.033       .  S
Fe309       O315   1.995       .  S
Fe309       O322   2.035       .  S
Fe309       O314   1.991       .  S
Fe309       O320   1.944       .  S
Fe310       O313   2.044       .  S
Fe310       O317   2.094       .  S
Fe310       O321   2.092       .  S
Fe310       O326   2.043       .  S
Fe310       O320   1.980       .  S
Fe311       O329   2.102       .  S
Fe311       O316   2.102       .  S
Fe311       O323   2.119       .  S
Fe311       O312   2.123       .  S
Fe311       O320   2.017       .  S
O312        C319   1.275       .  A
O313        C327   1.269       .  A
O314        C319   1.260       .  A
O315        C318   1.258       .  A
O316        C328   1.275       .  A
O317        C330   1.270       .  A
C318        O323   1.273       .  A
C318        C362   1.471   1_455  S
C319        C363   1.470   1_455  S
O321        C324   1.269       .  A
O322        C324   1.262       .  A
C324        C500   1.474       .  S
O325        C330   1.263       .  A
O326        C328   1.268       .  A
C327        O329   1.275       .  A
C330        C506   1.473       .  S
Fe331       O347   2.033       .  S
Fe331       O337   1.994       .  S
Fe332       O599   2.044       .  S
Fe332       O603   2.094       .  S
Fe332       O343   2.092       .  S
Fe332       O348   2.043       .  S
Fe332       O342   1.980       .  S
Fe333       O615   2.102       .  S
Fe333       O338   2.102       .  S
Fe333       O609   2.119       .  S
Fe333       O334   2.123       .  S
Fe333       O342   2.017       .  S
O334        C341   1.275       .  A
O335        C349   1.269       .  A
O336       Fe595   1.991       .  S
O336        C341   1.260       .  A
O337        C340   1.258       .  A
O338        C350   1.275       .  A
O339        C352   1.270       .  A
C340        O345   1.273       .  A
C340        C384   1.471   1_565  S
C341        C385   1.470   1_565  S
O342       Fe595   1.944       .  S
O343        C346   1.269       .  A
O344       Fe595   2.035       .  S
O344        C346   1.262       .  A
C346        C522   1.474       .  S
O347        C352   1.263       .  A
O348        C350   1.268       .  A
C349        O351   1.276       .  A
C352        C528   1.473       .  S
Fe353       O369   2.034       .  S
Fe353       O359   1.996       .  S
Fe354       O621   2.042       .  S
Fe354       O625   2.090       .  S
Fe354       O365   2.094       .  S
Fe354       O370   2.042       .  S
Fe354       O364   1.981       .  S
Fe355       O637   2.097       .  S
Fe355       O360   2.099       .  S
Fe355       O631   2.121       .  S
Fe355       O356   2.116       .  S
Fe355       O364   2.018       .  S
O356        C363   1.272       .  A
O357        C371   1.268       .  A
O358       Fe617   1.994       .  S
O358        C363   1.259       .  A
O359        C362   1.261       .  A
O360        C372   1.275       .  A
O361        C374   1.268       .  A
C362        O367   1.274       .  A
O364       Fe617   1.943       .  S
O365        C368   1.270       .  A
O366       Fe617   2.037       .  S
O366        C368   1.264       .  A
C368        C412   1.474       .  S
O369        C374   1.262       .  A
O370        C372   1.269       .  A
C371        O373   1.274       .  A
C371        C393   1.475       .  S
C372        C394   1.475       .  S
C374        C418   1.473       .  S
Fe375       O391   2.034       .  S
Fe375       O381   1.997       .  S
Fe375       O388   2.038       .  S
Fe375       O380   1.993       .  S
Fe375       O386   1.943       .  S
Fe376       O379   2.042       .  S
Fe376       O383   2.090       .  S
Fe376       O387   2.094       .  S
Fe376       O392   2.043       .  S
Fe376       O386   1.981       .  S
Fe377       O395   2.097       .  S
Fe377       O382   2.099       .  S
Fe377       O389   2.121       .  S
Fe377       O378   2.116       .  S
Fe377       O386   2.018       .  S
O378        C385   1.272       .  A
O379        C393   1.268       .  A
O380        C385   1.259       .  A
O381        C384   1.261       .  A
O382        C394   1.275       .  A
O383        C396   1.268       .  A
C384        O389   1.274       .  A
O387        C390   1.270       .  A
O388        C390   1.264       .  A
C390        C434   1.474       .  S
O391        C396   1.262       .  A
O392        C394   1.269       .  A
C393        O395   1.274       .  A
C396        C440   1.473       .  S
Fe397       O413   2.033       .  S
Fe397       O403   1.994       .  S
Fe397       O410   2.035       .  S
Fe397       O402   1.991       .  S
Fe397       O408   1.944       .  S
Fe398       O401   2.044       .  S
Fe398       O405   2.094       .  S
Fe398       O409   2.092       .  S
Fe398       O414   2.043       .  S
Fe398       O408   1.980       .  S
Fe399       O417   2.102       .  S
Fe399       O404   2.102       .  S
Fe399       O411   2.119       .  S
Fe399       O400   2.123       .  S
Fe399       O408   2.017       .  S
O400        C407   1.274       .  A
O401        C415   1.269       .  A
O402        C407   1.260       .  A
O403        C406   1.258       .  A
O404        C416   1.275       .  A
O405        C418   1.270       .  A
C406        O411   1.273       .  A
C406        C494   1.471   1_655  S
C407        C495   1.470   1_655  S
O409        C412   1.269       .  A
O410        C412   1.262       .  A
O413        C418   1.263       .  A
O414        C416   1.268       .  A
C415        O417   1.275       .  A
C415        C459   1.477       .  S
C416        C460   1.477       .  S
Fe419       O435   2.033       .  S
Fe419       O425   1.995       .  S
Fe420       O687   2.044       .  S
Fe420       O691   2.095       .  S
Fe420       O431   2.092       .  S
Fe420       O436   2.043       .  S
Fe420       O430   1.980       .  S
Fe421       O703   2.102       .  S
Fe421       O426   2.102       .  S
Fe421       O697   2.119       .  S
Fe421       O422   2.123       .  S
Fe421       O430   2.016       .  S
O422        C429   1.275       .  A
O423        C437   1.269       .  A
O424       Fe683   1.991       .  S
O424        C429   1.260       .  A
O425        C428   1.258       .  A
O426        C438   1.275       .  A
O427        C440   1.270       .  A
C428        O433   1.273       .  A
C428        C516   1.471   1_545  S
C429        C517   1.470   1_545  S
O430       Fe683   1.944       .  S
O431        C434   1.269       .  A
O432       Fe683   2.035       .  S
O432        C434   1.262       .  A
O435        C440   1.263       .  A
O436        C438   1.268       .  A
C437        O439   1.276       .  A
C437        C481   1.477       .  S
C438        C482   1.477       .  S
Fe441       O457   2.038       .  S
Fe441       O447   1.992       .  S
Fe442       O709   2.044       .  S
Fe442       O713   2.098       .  S
Fe442       O453   2.095       .  S
Fe442       O458   2.047       .  S
Fe442       O452   1.981       .  S
Fe443       O725   2.101       .  S
Fe443       O448   2.100       .  S
Fe443       O719   2.119       .  S
Fe443       O444   2.122       .  S
Fe443       O452   2.021       .  S
O444        C451   1.274       .  A
O445        C459   1.269       .  A
O446       Fe705   1.995       .  S
O446        C451   1.260       .  A
O447        C450   1.259       .  A
O448        C460   1.275       .  A
O449        C462   1.270       .  A
C450        O455   1.273       .  A
O452       Fe705   1.944       .  S
O453        C456   1.269       .  A
O454       Fe705   2.036       .  S
O454        C456   1.263       .  A
C456        C478   1.475       .  S
O457        C462   1.264       .  A
O458        C460   1.270       .  A
C459        O461   1.275       .  A
C462        C484   1.478       .  S
Fe463       O479   2.038       .  S
Fe463       O469   1.992       .  S
Fe463       O476   2.036       .  S
Fe463       O468   1.995       .  S
Fe463       O474   1.945       .  S
Fe464       O467   2.044       .  S
Fe464       O471   2.098       .  S
Fe464       O475   2.095       .  S
Fe464       O480   2.047       .  S
Fe464       O474   1.981       .  S
Fe465       O483   2.102       .  S
Fe465       O470   2.100       .  S
Fe465       O477   2.119       .  S
Fe465       O466   2.122       .  S
Fe465       O474   2.021       .  S
O466        C473   1.274       .  A
O467        C481   1.269       .  A
O468        C473   1.260       .  A
O469        C472   1.259       .  A
O470        C482   1.275       .  A
O471        C484   1.270       .  A
C472        O477   1.273       .  A
O475        C478   1.269       .  A
O476        C478   1.263       .  A
O479        C484   1.264       .  A
O480        C482   1.270       .  A
C481        O483   1.275       .  A
Fe485       O501   2.034       .  S
Fe485       O491   1.996       .  S
Fe486       O753   2.042       .  S
Fe486       O757   2.090       .  S
Fe486       O497   2.094       .  S
Fe486       O502   2.042       .  S
Fe486       O496   1.981       .  S
Fe487       O769   2.097       .  S
Fe487       O492   2.099       .  S
Fe487       O763   2.121       .  S
Fe487       O488   2.116       .  S
Fe487       O496   2.018       .  S
O488        C495   1.272       .  A
O489        C503   1.268       .  A
O490       Fe749   1.994       .  S
O490        C495   1.259       .  A
O491        C494   1.261       .  A
O492        C504   1.275       .  A
O493        C506   1.268       .  A
C494        O499   1.274       .  A
O496       Fe749   1.943       .  S
O497        C500   1.270       .  A
O498       Fe749   2.037       .  S
O498        C500   1.264       .  A
O501        C506   1.262       .  A
O502        C504   1.269       .  A
C503        O505   1.274       .  A
C503        C525   1.475       .  S
C504        C526   1.475       .  S
Fe507       O523   2.034       .  S
Fe507       O513   1.997       .  S
Fe507       O520   2.038       .  S
Fe507       O512   1.994       .  S
Fe507       O518   1.943       .  S
Fe508       O511   2.042       .  S
Fe508       O515   2.090       .  S
Fe508       O519   2.094       .  S
Fe508       O524   2.043       .  S
Fe508       O518   1.981       .  S
Fe509       O527   2.097       .  S
Fe509       O514   2.099       .  S
Fe509       O521   2.121       .  S
Fe509       O510   2.116       .  S
Fe509       O518   2.018       .  S
O510        C517   1.272       .  A
O511        C525   1.268       .  A
O512        C517   1.259       .  A
O513        C516   1.261       .  A
O514        C526   1.275       .  A
O515        C528   1.268       .  A
C516        O521   1.274       .  A
O519        C522   1.270       .  A
O520        C522   1.264       .  A
O523        C528   1.262       .  A
O524        C526   1.269       .  A
C525        O527   1.274       .  A
Fe529       O545   2.038       .  S
Fe529       O535   1.992       .  S
Fe529       O542   2.036       .  S
Fe529       O534   1.995       .  S
Fe529       O540   1.945       .  S
Fe530       O533   2.044       .  S
Fe530       O537   2.098       .  S
Fe530       O541   2.095       .  S
Fe530       O546   2.047       .  S
Fe530       O540   1.981       .  S
Fe531       O549   2.101       .  S
Fe531       O536   2.100       .  S
Fe531       O543   2.119       .  S
Fe531       O532   2.122       .  S
Fe531       O540   2.021       .  S
O532        C539   1.274       .  A
O533        C547   1.269       .  A
O534        C539   1.260       .  A
O535        C538   1.259       .  A
O536        C548   1.275       .  A
O537        C550   1.270       .  A
C538        O543   1.273       .  A
C538        C714   1.469       .  S
C539        C715   1.472       .  S
O541        C544   1.269       .  A
O542        C544   1.263       .  A
C544        C566   1.475       .  S
O545        C550   1.264       .  A
O546        C548   1.270       .  A
C547        O549   1.275       .  A
C547        C613   1.477       .  S
C548        C614   1.477       .  S
C550        C572   1.478       .  S
Fe551       O567   2.038       .  S
Fe551       O557   1.992       .  S
Fe552       O563   2.095       .  S
Fe552       O568   2.046       .  S
Fe552       O562   1.981       .  S
Fe553       O558   2.100   1_554  S
Fe553       O554   2.122   1_554  S
Fe553       O562   2.021   1_554  S
O554        C561   1.274       .  A
O555        C569   1.269       .  A
O556        C561   1.260       .  A
O557        C560   1.259       .  A
O558        C570   1.275       .  A
O559        C572   1.270       .  A
C560        O565   1.273       .  A
C560        C736   1.470       .  S
C561        C737   1.472       .  S
O563        C566   1.269       .  A
O564        C566   1.263       .  A
O567        C572   1.264       .  A
O568        C570   1.270       .  A
C569        O571   1.275       .  A
C569        C591   1.477       .  S
C570        C592   1.477       .  S
Fe573       O589   2.033       .  S
Fe573       O579   1.995       .  S
Fe573       O586   2.035       .  S
Fe573       O578   1.991       .  S
Fe573       O584   1.944       .  S
Fe574       O577   2.044       .  S
Fe574       O581   2.094       .  S
Fe574       O585   2.092       .  S
Fe574       O590   2.043       .  S
Fe574       O584   1.980       .  S
Fe575       O593   2.102       .  S
Fe575       O580   2.102       .  S
Fe575       O587   2.119       .  S
Fe575       O576   2.123       .  S
Fe575       O584   2.017       .  S
O576        C583   1.275       .  A
O577        C591   1.269       .  A
O578        C583   1.260       .  A
O579        C582   1.258       .  A
O580        C592   1.275       .  A
O581        C594   1.270       .  A
C582        O587   1.273       .  A
C582        C626   1.471   1_455  S
C583        C627   1.470   1_455  S
O585        C588   1.269       .  A
O586        C588   1.262       .  A
C588        C764   1.474       .  S
O589        C594   1.263       .  A
O590        C592   1.268       .  A
C591        O593   1.275       .  A
C594        C770   1.473       .  S
Fe595       O611   2.033       .  S
Fe595       O601   1.994       .  S
Fe596       O607   2.092       .  S
Fe596       O612   2.043       .  S
Fe596       O606   1.980       .  S
Fe597       O602   2.102   1_554  S
Fe597       O598   2.123   1_554  S
Fe597       O606   2.017   1_554  S
O598        C605   1.275       .  A
O599        C613   1.269       .  A
O600        C605   1.260       .  A
O601        C604   1.258       .  A
O602        C614   1.275       .  A
O603        C616   1.270       .  A
C604        O609   1.273       .  A
C604        C648   1.471   1_565  S
C605        C649   1.470   1_565  S
O607        C610   1.269       .  A
O608        C610   1.262       .  A
C610        C786   1.474       .  S
O611        C616   1.263       .  A
O612        C614   1.268       .  A
C613        O615   1.276       .  A
C616        C792   1.473       .  S
Fe617       O633   2.034       .  S
Fe617       O623   1.996       .  S
Fe618       O629   2.094   1_554  S
Fe618       O634   2.042   1_554  S
Fe618       O628   1.981       .  S
Fe619       O624   2.099       .  S
Fe619       O620   2.116       .  S
Fe619       O628   2.018   1_556  S
O620        C627   1.272       .  A
O621        C635   1.268       .  A
O622        C627   1.259       .  A
O623        C626   1.261       .  A
O624        C636   1.275       .  A
O625        C638   1.268       .  A
C626        O631   1.274       .  A
O629        C632   1.270       .  A
O630        C632   1.264       .  A
C632        C676   1.474       .  S
O633        C638   1.262       .  A
O634        C636   1.269       .  A
C635        O637   1.274       .  A
C635        C657   1.475       .  S
C636        C658   1.475       .  S
C638        C682   1.473       .  S
Fe639       O655   2.034       .  S
Fe639       O645   1.997       .  S
Fe639       O652   2.038       .  S
Fe639       O644   1.993       .  S
Fe639       O650   1.943       .  S
Fe640       O643   2.042       .  S
Fe640       O647   2.090       .  S
Fe640       O651   2.094       .  S
Fe640       O656   2.043       .  S
Fe640       O650   1.981       .  S
Fe641       O659   2.097       .  S
Fe641       O646   2.099       .  S
Fe641       O653   2.121       .  S
Fe641       O642   2.116       .  S
Fe641       O650   2.018       .  S
O642        C649   1.272       .  A
O643        C657   1.268       .  A
O644        C649   1.259       .  A
O645        C648   1.261       .  A
O646        C658   1.275       .  A
O647        C660   1.268       .  A
C648        O653   1.274       .  A
O651        C654   1.270       .  A
O652        C654   1.264       .  A
C654        C698   1.474       .  S
O655        C660   1.262       .  A
O656        C658   1.269       .  A
C657        O659   1.274       .  A
C660        C704   1.473       .  S
Fe661       O677   2.033       .  S
Fe661       O667   1.994       .  S
Fe661       O674   2.035       .  S
Fe661       O666   1.991       .  S
Fe661       O672   1.944       .  S
Fe662       O665   2.044       .  S
Fe662       O669   2.094       .  S
Fe662       O673   2.092       .  S
Fe662       O678   2.043       .  S
Fe662       O672   1.980       .  S
Fe663       O681   2.102       .  S
Fe663       O668   2.102       .  S
Fe663       O675   2.119       .  S
Fe663       O664   2.123       .  S
Fe663       O672   2.017       .  S
O664        C671   1.274       .  A
O665        C679   1.269       .  A
O666        C671   1.260       .  A
O667        C670   1.258       .  A
O668        C680   1.275       .  A
O669        C682   1.270       .  A
C670        O675   1.273       .  A
C670        C758   1.471   1_655  S
C671        C759   1.470   1_655  S
O673        C676   1.269       .  A
O674        C676   1.262       .  A
O677        C682   1.263       .  A
O678        C680   1.268       .  A
C679        O681   1.275       .  A
C679        C723   1.477       .  S
C680        C724   1.477       .  S
Fe683       O699   2.033       .  S
Fe683       O689   1.995       .  S
Fe684       O695   2.092       .  S
Fe684       O700   2.043       .  S
Fe684       O694   1.980       .  S
Fe685       O690   2.102   1_554  S
Fe685       O686   2.123   1_554  S
Fe685       O694   2.016   1_554  S
O686        C693   1.275       .  A
O687        C701   1.269       .  A
O688        C693   1.260       .  A
O689        C692   1.258       .  A
O690        C702   1.275       .  A
O691        C704   1.270       .  A
C692        O697   1.273       .  A
C692        C780   1.471   1_545  S
C693        C781   1.470   1_545  S
O695        C698   1.269       .  A
O696        C698   1.262       .  A
O699        C704   1.263       .  A
O700        C702   1.268       .  A
C701        O703   1.276       .  A
C701        C745   1.477       .  S
C702        C746   1.477       .  S
Fe705       O721   2.038       .  S
Fe705       O711   1.992       .  S
Fe706       O717   2.095       .  S
Fe706       O722   2.047       .  S
Fe706       O716   1.981       .  S
Fe707       O712   2.100   1_554  S
Fe707       O708   2.122   1_554  S
Fe707       O716   2.021   1_554  S
O708        C715   1.274       .  A
O709        C723   1.269       .  A
O710        C715   1.260       .  A
O711        C714   1.259       .  A
O712        C724   1.275       .  A
O713        C726   1.270       .  A
C714        O719   1.273       .  A
O717        C720   1.269       .  A
O718        C720   1.263       .  A
C720        C742   1.475       .  S
O721        C726   1.264       .  A
O722        C724   1.270       .  A
C723        O725   1.275       .  A
C726        C748   1.478       .  S
Fe727       O743   2.038       .  S
Fe727       O733   1.992       .  S
Fe727       O740   2.036       .  S
Fe727       O732   1.995       .  S
Fe727       O738   1.945       .  S
Fe728       O731   2.044       .  S
Fe728       O735   2.098       .  S
Fe728       O739   2.095       .  S
Fe728       O744   2.047       .  S
Fe728       O738   1.981       .  S
Fe729       O747   2.102       .  S
Fe729       O734   2.100       .  S
Fe729       O741   2.119       .  S
Fe729       O730   2.122       .  S
Fe729       O738   2.021       .  S
O730        C737   1.274       .  A
O731        C745   1.269       .  A
O732        C737   1.260       .  A
O733        C736   1.259       .  A
O734        C746   1.275       .  A
O735        C748   1.270       .  A
C736        O741   1.273       .  A
O739        C742   1.269       .  A
O740        C742   1.263       .  A
O743        C748   1.264       .  A
O744        C746   1.270       .  A
C745        O747   1.275       .  A
Fe749       O765   2.034       .  S
Fe749       O755   1.996       .  S
Fe750       O761   2.094   1_554  S
Fe750       O766   2.042   1_554  S
Fe750       O760   1.981   1_554  S
Fe751       O756   2.099       .  S
Fe751       O752   2.116       .  S
Fe751       O760   2.018       .  S
O752        C759   1.272       .  A
O753        C767   1.268       .  A
O754        C759   1.259       .  A
O755        C758   1.261       .  A
O756        C768   1.275       .  A
O757        C770   1.268       .  A
C758        O763   1.274       .  A
O761        C764   1.270       .  A
O762        C764   1.264       .  A
O765        C770   1.262       .  A
O766        C768   1.269       .  A
C767        O769   1.274       .  A
C767        C789   1.475       .  S
C768        C790   1.475       .  S
Fe771       O787   2.034       .  S
Fe771       O777   1.997       .  S
Fe771       O784   2.038       .  S
Fe771       O776   1.994       .  S
Fe771       O782   1.943       .  S
Fe772       O775   2.042       .  S
Fe772       O779   2.090       .  S
Fe772       O783   2.094       .  S
Fe772       O788   2.043       .  S
Fe772       O782   1.981       .  S
Fe773       O791   2.097       .  S
Fe773       O778   2.099       .  S
Fe773       O785   2.121       .  S
Fe773       O774   2.116       .  S
Fe773       O782   2.018       .  S
O774        C781   1.272       .  A
O775        C789   1.268       .  A
O776        C781   1.259       .  A
O777        C780   1.261       .  A
O778        C790   1.275       .  A
O779        C792   1.268       .  A
C780        O785   1.274       .  A
O783        C786   1.270       .  A
O784        C786   1.264       .  A
O787        C792   1.262       .  A
O788        C790   1.269       .  A
C789        O791   1.274       .  A
