geometry optimzed in LAMMPS
_audit_creation_date              2020-12-01 
_audit_creation_method            'lammps2cif' 
_symmetry_space_group_name_H-M    'P1' 
_symmetry_Int_Tables_number       1 
_symmetry_cell_setting            triclinic 
loop_ 
_symmetry_equiv_pos_as_xyz 
  x,y,z 
_cell_length_a                    32.79832246 
_cell_length_b                    32.79735292521532 
_cell_length_c                    32.799494031198165 
_cell_angle_alpha                 89.20144341682654 
_cell_angle_beta                  90.01740590557857 
_cell_angle_gamma                 90.30506445903825 
loop_ 
_atom_site_label 
_atom_site_type_symbol 
_atom_site_fract_x 
_atom_site_fract_y 
_atom_site_fract_z 
_atom_site_charge 
O1          O  0.71724513  0.34058750  0.03415893    -0.74300
O2          O  0.60060755  0.33918728  0.03548984    -0.74400
O3          O  0.65993938  0.28154792  0.03344616    -0.74400
O4          O  0.65835812  0.39869525  0.03552690    -0.74500
O5          O  0.65726826  0.40047836  0.96763198    -0.74400
O6          O  0.65926497  0.28425521  0.96609908    -0.74400
O7          O  0.59968121  0.34088412  0.96758544    -0.74400
O8          O  0.71650092  0.34322464  0.96680593    -0.74400
Ni9        Ni  0.65895212  0.34005879  0.03709519     1.25400
Ni10       Ni  0.65806925  0.34239536  0.96466631     1.25400
C11         C  0.73646949  0.33970813  0.00024163     0.87800
C12         C  0.58083539  0.33945377  0.00181021     0.87800
C13         C  0.66201403  0.26335462  0.99912550     0.87800
C14         C  0.65767704  0.41890852  0.00175726     0.88000
O15         O  0.11616274  0.28144510  0.03448084    -0.74300
O16         O  0.11706058  0.39859574  0.03271487    -0.74400
O17         O  0.05864233  0.33965656  0.03310558    -0.74400
O18         O  0.17507020  0.34022874  0.03434889    -0.74500
O19         O  0.17574802  0.34154434  0.96644072    -0.74400
O20         O  0.05882692  0.33830222  0.96568357    -0.74400
O21         O  0.11604824  0.39842950  0.96479548    -0.74400
O22         O  0.11828696  0.28211942  0.96715273    -0.74400
Ni23       Ni  0.11681101  0.34008603  0.03608080     1.25400
Ni24       Ni  0.11733113  0.34019678  0.96362152     1.25400
C25         C  0.11504139  0.26215487  0.00076162     0.87800
C26         C  0.11641021  0.41780834  0.99840058     0.87800
C27         C  0.03920008  0.33653272  0.99945433     0.87800
C28         C  0.19472043  0.34099557  0.00061917     0.88000
O29         O  0.65968682  0.94037349  0.03080598    -0.74300
O30         O  0.66069986  0.82417544  0.03083294    -0.74400
O31         O  0.71836362  0.88353919  0.03127910    -0.74400
O32         O  0.60164041  0.88160536  0.02959600    -0.74500
O33         O  0.60274531  0.88400771  0.96170714    -0.74400
O34         O  0.71946269  0.88366757  0.96383976    -0.74400
O35         O  0.66035139  0.82498778  0.96289566    -0.74400
O36         O  0.66232441  0.94226167  0.96344765    -0.74400
Ni37       Ni  0.65996451  0.88228428  0.03297644     1.25400
Ni38       Ni  0.66115830  0.88366501  0.96050767     1.25400
C39         C  0.66331685  0.96087850  0.99760151     0.87800
C40         C  0.66054628  0.80528315  0.99697826     0.87800
C41         C  0.73846829  0.88594958  0.99784685     0.87800
C42         C  0.58287286  0.88284412  0.99532272     0.88000
O43         O  0.06046012  0.88079976  0.03137132    -0.74300
O44         O  0.17751643  0.88045794  0.03120565    -0.74400
O45         O  0.11895450  0.93855581  0.03236491    -0.74400
O46         O  0.11870379  0.82203357  0.03024233    -0.74500
O47         O  0.11938428  0.82427423  0.96234352    -0.74400
O48         O  0.11826027  0.94112548  0.96494284    -0.74400
O49         O  0.17732364  0.88300039  0.96327901    -0.74400
O50         O  0.06099471  0.88225491  0.96401520    -0.74400
Ni51       Ni  0.11902413  0.88026369  0.03371443     1.25400
Ni52       Ni  0.11908426  0.88268925  0.96125539     1.25400
C53         C  0.04114778  0.88380336  0.99748496     0.87800
C54         C  0.19670069  0.88168265  0.99715390     0.87800
C55         C  0.11617750  0.95936376  0.99920871     0.87800
C56         C  0.11907244  0.80385215  0.99592474     0.88000
O57         O  0.66014895  0.07635319  0.82911394    -0.74300
O58         O  0.65851349  0.07348525  0.71192123    -0.74400
O59         O  0.71735659  0.07504898  0.77047868    -0.74400
O60         O  0.60066868  0.07423169  0.77114031    -0.74500
O61         O  0.60043626  0.14211547  0.76824132    -0.74400
O62         O  0.71712611  0.14246364  0.76813414    -0.74400
O63         O  0.65869224  0.14138716  0.70986656    -0.74400
O64         O  0.65935333  0.14371632  0.82602355    -0.74400
Ni65       Ni  0.65903187  0.07231903  0.77063077     1.25400
Ni66       Ni  0.65879515  0.14476700  0.76787599     1.25400
C67         C  0.66225057  0.11081306  0.84709203     0.87800
C68         C  0.65874230  0.10719032  0.69156623     0.87800
C69         C  0.73678476  0.10896545  0.77169844     0.87800
C70         C  0.58123403  0.10800811  0.76991513     0.88000
O71         O  0.05920599  0.07599632  0.77162128    -0.74300
O72         O  0.17557719  0.07597091  0.77315153    -0.74400
O73         O  0.11618210  0.07700906  0.83061420    -0.74400
O74         O  0.11830219  0.07492160  0.71388270    -0.74500
O75         O  0.11733483  0.14281992  0.71175917    -0.74400
O76         O  0.11750666  0.14440519  0.82835165    -0.74400
O77         O  0.17604733  0.14385079  0.76987413    -0.74400
O78         O  0.05901662  0.14340347  0.77065363    -0.74400
Ni79       Ni  0.11738738  0.07360516  0.77229799     1.25400
Ni80       Ni  0.11756031  0.14606088  0.76999331     1.25400
C81         C  0.03951523  0.10948679  0.77329682     0.87800
C82         C  0.19512056  0.10984830  0.77164246     0.87800
C83         C  0.11465255  0.11114435  0.84905954     0.87800
C84         C  0.11796899  0.10854177  0.69352063     0.88000
O85         O  0.11657073  0.07562404  0.17203334    -0.74300
O86         O  0.11650297  0.07492183  0.28853260    -0.74400
O87         O  0.05799160  0.07605794  0.22940949    -0.74400
O88         O  0.17516288  0.07484241  0.23054688    -0.74500
O89         O  0.17579832  0.14275545  0.22899566    -0.74400
O90         O  0.05955008  0.14345841  0.22965463    -0.74400
O91         O  0.11804848  0.14284167  0.28793739    -0.74400
O92         O  0.11669274  0.14302548  0.17096694    -0.74400
Ni93       Ni  0.11659154  0.07292650  0.23027954     1.25400
Ni94       Ni  0.11765398  0.14539362  0.22946639     1.25400
C95         C  0.11432977  0.10922775  0.15190855     0.87800
C96         C  0.11745184  0.10875540  0.30753431     0.87800
C97         C  0.03923806  0.11024567  0.22701465     0.87800
C98         C  0.19479933  0.10876631  0.22969757     0.88000
O99         O  0.71641739  0.07959138  0.22736194    -0.74300
O100        O  0.59997772  0.07985673  0.22870835    -0.74400
O101        O  0.65792511  0.07926962  0.17009770    -0.74400
O102        O  0.65870786  0.07990257  0.28632176    -0.74500
O103        O  0.65981828  0.14781121  0.28520961    -0.74400
O104        O  0.65911045  0.14666432  0.16799955    -0.74400
O105        O  0.60063591  0.14777356  0.22724898    -0.74400
O106        O  0.71764840  0.14699730  0.22547871    -0.74400
Ni107      Ni  0.65814799  0.07733712  0.22825802     1.25400
Ni108      Ni  0.65918827  0.14980025  0.22653824     1.25400
C109        C  0.73657672  0.11297465  0.22387044     0.87800
C110        C  0.58099455  0.11386205  0.22822655     0.87800
C111        C  0.66085826  0.11250965  0.14949213     0.87800
C112        C  0.65949356  0.11383670  0.30509233     0.88000
O113        O  0.92047875  0.87963755  0.82577558    -0.74300
O114        O  0.91823316  0.88032251  0.70943603    -0.74400
O115        O  0.91979342  0.93812463  0.76764567    -0.74400
O116        O  0.91902088  0.82159335  0.76796536    -0.74500
O117        O  0.85113240  0.82166968  0.76934913    -0.74400
O118        O  0.85240743  0.93868331  0.76960663    -0.74400
O119        O  0.85034502  0.88095677  0.71067664    -0.74400
O120        O  0.85313044  0.88002981  0.82772870    -0.74400
Ni121      Ni  0.92172241  0.87982370  0.76755249     1.25400
Ni122      Ni  0.84929102  0.88021606  0.76927071     1.25400
C123        C  0.88746160  0.88216043  0.84629254     0.87800
C124        C  0.88397207  0.88085883  0.69073710     0.87800
C125        C  0.88647700  0.95793161  0.77104968     0.87800
C126        C  0.88498780  0.80230119  0.76882260     0.88000
O127        O  0.92316913  0.27997922  0.77166870    -0.74300
O128        O  0.92339398  0.39693817  0.77111891    -0.74400
O129        O  0.92253186  0.33744935  0.82946296    -0.74400
O130        O  0.92409543  0.33913412  0.71263173    -0.74500
O131        O  0.85619071  0.33896706  0.71186114    -0.74400
O132        O  0.85513911  0.33736601  0.82832793    -0.74400
O133        O  0.85548867  0.39653303  0.77023425    -0.74400
O134        O  0.85577171  0.28014165  0.77046218    -0.74400
Ni135      Ni  0.92574572  0.33848091  0.77110936     1.25400
Ni136      Ni  0.85328554  0.33831416  0.77008361     1.25400
C137        C  0.88924320  0.26047165  0.77340894     0.87800
C138        C  0.88938719  0.41603804  0.77106416     0.87800
C139        C  0.88847089  0.33517534  0.84848631     0.87800
C140        C  0.89033309  0.33915909  0.69293189     0.88000
O141        O  0.85700369  0.88211369  0.16830914    -0.74300
O142        O  0.85608996  0.88227019  0.28478889    -0.74400
O143        O  0.85521325  0.94026699  0.22505547    -0.74400
O144        O  0.85771194  0.82380819  0.22759492    -0.74500
O145        O  0.92559921  0.82563857  0.22706235    -0.74400
O146        O  0.92261055  0.94254081  0.22590122    -0.74400
O147        O  0.92398378  0.88372884  0.28529506    -0.74400
O148        O  0.92439032  0.88513845  0.16829197    -0.74400
Ni149      Ni  0.85415061  0.88196547  0.22652570     1.25400
Ni150      Ni  0.92659923  0.88421081  0.22677470     1.25400
C151        C  0.89058503  0.88607098  0.14873313     0.87800
C152        C  0.88986638  0.88292374  0.30437530     0.87800
C153        C  0.88833615  0.96094203  0.22289192     0.87800
C154        C  0.89203325  0.80539653  0.22744583     0.88000
O155        O  0.92241094  0.34156373  0.17056567    -0.74300
O156        O  0.92314876  0.34016513  0.28728003    -0.74400
O157        O  0.92206150  0.28293178  0.22862172    -0.74400
O158        O  0.92385964  0.39931787  0.22907792    -0.74500
O159        O  0.85595433  0.39975786  0.22894786    -0.74400
O160        O  0.85467516  0.28258057  0.22824388    -0.74400
O161        O  0.85524467  0.34034969  0.28735243    -0.74400
O162        O  0.85498926  0.34163986  0.17054084    -0.74400
Ni163      Ni  0.92523619  0.34106991  0.22895017     1.25400
Ni164      Ni  0.85277973  0.34121775  0.22891584     1.25400
C165        C  0.88866693  0.33933926  0.15100641     0.87800
C166        C  0.88923463  0.33999394  0.30664197     0.87800
C167        C  0.88845106  0.26321072  0.22597534     0.87800
C168        C  0.89018904  0.41886509  0.22903482     0.88000
N169        N  0.84327943  0.34011074  0.04461055    -0.36500
N170        N  0.84320286  0.33622204  0.95508331    -0.57100
N171        N  0.93289440  0.33681738  0.95471182    -0.36500
N172        N  0.93283658  0.33623097  0.04426219    -0.57100
C173        C  0.80358127  0.33054743  0.03734964     0.27100
C174        C  0.85083096  0.33063812  0.08437752     0.27100
C175        C  0.92509266  0.32625861  0.91560391     0.27100
C176        C  0.97234288  0.32697426  0.96241394     0.27100
C177        C  0.80268810  0.33071771  0.96176869     0.35700
C178        C  0.84953057  0.32868584  0.91499130     0.35700
C179        C  0.92621093  0.32933901  0.08458802     0.35700
C180        C  0.97276588  0.32803407  0.03769002     0.35700
C181        C  0.78667619  0.31333007  0.07235464    -0.21800
C182        C  0.81613223  0.31348928  0.10171249    -0.21800
C183        C  0.95936437  0.30806924  0.89924103    -0.21800
C184        C  0.98896407  0.30861677  0.92849595    -0.21800
C185        C  0.78423012  0.31669850  0.92657857    -0.22900
C186        C  0.81350322  0.31541819  0.89735212    -0.22900
C187        C  0.96113019  0.31363222  0.10255835    -0.22900
C188        C  0.99030548  0.31284196  0.07316643    -0.22900
C189        C  0.78236996  0.33512523  0.99972057    -0.18200
C190        C  0.88862162  0.33470094  0.10519623    -0.18200
C191        C  0.99338085  0.33190822  0.99979726    -0.18200
C192        C  0.88764054  0.33111769  0.89441209    -0.18200
H193        H  0.75725958  0.29883415  0.07613699     0.14700
H194        H  0.81273790  0.29920996  0.13138469     0.14700
H195        H  0.96234102  0.29300892  0.87031162     0.14700
H196        H  0.01826326  0.29399182  0.92568228     0.14700
H197        H  0.75387311  0.30454368  0.92249249     0.13000
H198        H  0.80863227  0.30219008  0.86778400     0.13000
H199        H  0.96501022  0.30056883  0.13270290     0.13000
H200        H  0.01992367  0.29917128  0.07737216     0.13000
H201        H  0.86290112  0.35544450  0.02474750     0.26200
H202        H  0.91376050  0.35311775  0.97363919     0.26200
N203        N  0.93477490  0.88476268  0.04223650    -0.36500
N204        N  0.93409664  0.88480017  0.95263750    -0.57100
N205        N  0.84451650  0.88378653  0.95320000    -0.36500
N206        N  0.84523133  0.88783524  0.04248850    -0.57100
C207        C  0.97436397  0.89414861  0.03418249     0.27100
C208        C  0.92755911  0.89518839  0.08149833     0.27100
C209        C  0.85211950  0.89341176  0.91352170     0.27100
C210        C  0.80545520  0.89488115  0.96084171     0.27100
C211        C  0.97461951  0.89094354  0.95864631     0.35700
C212        C  0.92744758  0.88997232  0.91202118     0.35700
C213        C  0.85211971  0.89506101  0.08250503     0.35700
C214        C  0.80495638  0.89462105  0.03612497     0.35700
C215        C  0.99162030  0.91224114  0.06807098    -0.21800
C216        C  0.96236602  0.91284412  0.09767949    -0.21800
C217        C  0.81826478  0.91236096  0.89671471    -0.21800
C218        C  0.78906325  0.91325229  0.92629935    -0.21800
C219        C  0.99267934  0.90305550  0.92218477    -0.22900
C220        C  0.96329287  0.90234273  0.89310503    -0.22900
C221        C  0.81688386  0.90961969  0.10040524    -0.22900
C222        C  0.78729507  0.90925734  0.07136334    -0.22900
C223        C  0.99527692  0.88839275  0.99678980    -0.18200
C224        C  0.89010600  0.89084195  0.10287064    -0.18200
C225        C  0.78432071  0.89043891  0.99839579    -0.18200
C226        C  0.88905395  0.88701767  0.89207037    -0.18200
H227        H  0.02129658  0.92642252  0.07074328     0.14700
H228        H  0.96599675  0.92758837  0.12670837     0.14700
H229        H  0.81534039  0.92673954  0.86705829     0.14700
H230        H  0.76007664  0.92843792  0.92306368     0.14700
H231        H  0.02269940  0.91552513  0.91665629     0.13000
H232        H  0.96802694  0.91416658  0.86260944     0.13000
H233        H  0.81296658  0.92262905  0.13021410     0.13000
H234        H  0.75732393  0.92199661  0.07558225     0.13000
H235        H  0.91504295  0.86871654  0.02342299     0.26200
H236        H  0.86342078  0.86715228  0.97266436     0.26200
N237        N  0.84339444  0.15673674  0.22463990    -0.36500
N238        N  0.93302639  0.15638027  0.22426694    -0.57100
N239        N  0.93234359  0.06702984  0.22425963    -0.36500
N240        N  0.84288848  0.06741200  0.22079266    -0.57100
C241        C  0.85147651  0.19638268  0.21505115     0.27100
C242        C  0.80403349  0.14945104  0.21397409     0.27100
C243        C  0.97196541  0.07477266  0.21493152     0.27100
C244        C  0.92442486  0.02821877  0.21278054     0.27100
C245        C  0.92694876  0.19691905  0.21812364     0.35700
C246        C  0.97349387  0.14992543  0.21865087     0.35700
C247        C  0.80245064  0.07395636  0.21513837     0.35700
C248        C  0.84903320  0.02705261  0.21473923     0.35700
C249        C  0.81754588  0.21358519  0.19657648    -0.21800
C250        C  0.78786177  0.18423278  0.19591122    -0.21800
C251        C  0.98851486  0.04130608  0.19574797    -0.21800
C252        C  0.95869055  0.01215880  0.19433609    -0.21800
C253        C  0.96309185  0.21522112  0.20550785    -0.22900
C254        C  0.99215322  0.18590318  0.20590117    -0.22900
C255        C  0.78386390  0.03828618  0.20230738    -0.22900
C256        C  0.81298122  0.00893567  0.20213869    -0.22900
C257        C  0.88892302  0.21739775  0.22103342    -0.18200
C258        C  0.78239560  0.11207238  0.21884050    -0.18200
C259        C  0.88711025  0.00674930  0.21787130    -0.18200
C260        C  0.99347852  0.11162089  0.22173941    -0.18200
H261        H  0.81482609  0.24335779  0.18238568     0.14700
H262        H  0.75864201  0.18782788  0.18114385     0.14700
H263        H  0.01812298  0.03870449  0.18158396     0.14700
H264        H  0.96157552  0.98333469  0.17905211     0.14700
H265        H  0.96822059  0.24546158  0.19311363     0.13000
H266        H  0.02242909  0.19074632  0.19385206     0.13000
H267        H  0.75349903  0.03375023  0.19044327     0.13000
H268        H  0.80796355  0.97881944  0.19021689     0.13000
H269        H  0.86223685  0.13706490  0.24105237     0.26200
H270        H  0.91320964  0.08550962  0.24118572     0.26200
N271        N  0.93328781  0.15410641  0.77249846    -0.36500
N272        N  0.93246493  0.06448281  0.77371638    -0.57100
N273        N  0.84286758  0.06445651  0.77140243    -0.36500
N274        N  0.84365621  0.15388287  0.77442593    -0.57100
C275        C  0.97274320  0.14632909  0.78231775     0.27100
C276        C  0.92592398  0.19340173  0.78258795     0.27100
C277        C  0.85020509  0.02481591  0.78120585     0.27100
C278        C  0.80350578  0.07194127  0.78153594     0.27100
C279        C  0.97274860  0.07081115  0.78092697     0.35700
C280        C  0.92556975  0.02403760  0.78006422     0.35700
C281        C  0.85040368  0.19400030  0.78155281     0.35700
C282        C  0.80324367  0.14731866  0.78067993     0.35700
C283        C  0.98976654  0.18045653  0.80025852    -0.21800
C284        C  0.96049523  0.20988849  0.80041052    -0.21800
C285        C  0.81579337  0.00782585  0.79927674    -0.21800
C286        C  0.78660083  0.03728696  0.79949673    -0.21800
C287        C  0.99031124  0.03488587  0.79493405    -0.22900
C288        C  0.96081641  0.00564518  0.79435030    -0.22900
C289        C  0.81483757  0.21175084  0.79547566    -0.22900
C290        C  0.78531379  0.18255477  0.79485626    -0.22900
C291        C  0.99359411  0.10886284  0.77749789    -0.18200
C292        C  0.88851808  0.21456646  0.77793797    -0.18200
C293        C  0.78258799  0.10945913  0.77654521    -0.18200
C294        C  0.88744711  0.00370763  0.77596082    -0.18200
H295        H  0.01916179  0.18336521  0.81486687     0.14700
H296        H  0.96387571  0.23898563  0.81510663     0.14700
H297        H  0.81240426  0.97821928  0.81369712     0.14700
H298        H  0.75726973  0.03382085  0.81409214     0.14700
H299        H  0.02009961  0.03007899  0.80807825     0.13000
H300        H  0.96480174  0.97531936  0.80690515     0.13000
H301        H  0.81054222  0.24146384  0.80852721     0.13000
H302        H  0.75517559  0.18666577  0.80734218     0.13000
H303        H  0.91376454  0.13502521  0.75650568     0.26200
H304        H  0.86224979  0.08399626  0.75524643     0.26200
N305        N  0.66172617  0.15642764  0.04258958    -0.36500
N306        N  0.66443481  0.15704694  0.95321421    -0.57100
N307        N  0.66308823  0.06764403  0.95387550    -0.36500
N308        N  0.66366322  0.06700788  0.04325177    -0.57100
C309        C  0.67287458  0.19564273  0.03456020     0.27100
C310        C  0.67218808  0.14839902  0.08192678     0.27100
C311        C  0.67422055  0.07590146  0.91479494     0.27100
C312        C  0.67434516  0.02862719  0.96202094     0.27100
C313        C  0.66882568  0.19774281  0.95917405     0.35700
C314        C  0.66902223  0.15105603  0.91257279     0.35700
C315        C  0.66853649  0.07310314  0.08383074     0.35700
C316        C  0.66956126  0.02659270  0.03719062     0.35700
C317        C  0.69221037  0.21166029  0.06837499    -0.21800
C318        C  0.69174471  0.18208275  0.09805607    -0.21800
C319        C  0.69435109  0.04263255  0.89897091    -0.21800
C320        C  0.69443661  0.01297538  0.92858555    -0.21800
C321        C  0.67919586  0.21678297  0.92257691    -0.22900
C322        C  0.67929894  0.18767616  0.89352986    -0.22900
C323        C  0.68053636  0.03699830  0.10265884    -0.22900
C324        C  0.68119730  0.00797702  0.07353379    -0.22900
C325        C  0.66677527  0.21754414  0.99751047    -0.18200
C326        C  0.66571258  0.11128762  0.10368390    -0.18200
C327        C  0.66779211  0.00671584  0.99894491    -0.18200
C328        C  0.66727588  0.11268570  0.89284521    -0.18200
H329        H  0.70745936  0.24079360  0.07100054     0.14700
H330        H  0.70660654  0.18466230  0.12730693     0.14700
H331        H  0.70953327  0.04039437  0.86987759     0.14700
H332        H  0.70979156  0.98404974  0.92617189     0.14700
H333        H  0.68992750  0.24745730  0.91682086     0.13000
H334        H  0.69006502  0.19340931  0.86290946     0.13000
H335        H  0.69199037  0.03186115  0.13312590     0.13000
H336        H  0.69316048  0.97777808  0.07883772     0.13000
H337        H  0.64439943  0.13775949  0.02382711     0.26200
H338        H  0.64517297  0.08593668  0.97227621     0.26200
N339        N  0.11531117  0.15489690  0.04533021    -0.36500
N340        N  0.11386073  0.15587709  0.95566529    -0.57100
N341        N  0.11591250  0.06635891  0.95559330    -0.36500
N342        N  0.11344649  0.06524444  0.04517705    -0.57100
C343        C  0.10546232  0.19446117  0.03766626     0.27100
C344        C  0.10501355  0.14664976  0.08471753     0.27100
C345        C  0.10466422  0.07466986  0.91653298     0.27100
C346        C  0.10522700  0.02699040  0.96347242     0.27100
C347        C  0.10777746  0.19620102  0.96205578     0.35700
C348        C  0.10816174  0.15000286  0.91513353     0.35700
C349        C  0.10679575  0.07106722  0.08552499     0.35700
C350        C  0.10775531  0.02481233  0.03868819     0.35700
C351        C  0.08727514  0.21063691  0.07194808    -0.21800
C352        C  0.08695148  0.18073491  0.10134056    -0.21800
C353        C  0.08502502  0.04095612  0.90048739    -0.21800
C354        C  0.08546384  0.01105679  0.92986884    -0.21800
C355        C  0.09514440  0.21482545  0.92601719    -0.22900
C356        C  0.09560336  0.18605700  0.89670587    -0.22900
C357        C  0.09376331  0.03480572  0.10358668    -0.22900
C358        C  0.09444960  0.00588594  0.07433342    -0.22900
C359        C  0.11071476  0.21618687  0.00023229    -0.18200
C360        C  0.10990070  0.10894424  0.10598466    -0.18200
C361        C  0.11127829  0.00513246  0.00053129    -0.18200
C362        C  0.11050349  0.11202552  0.89495708    -0.18200
H363        H  0.07269256  0.23989067  0.07504885     0.14700
H364        H  0.07209675  0.18338045  0.13058770     0.14700
H365        H  0.06943264  0.03857000  0.87156661     0.14700
H366        H  0.07029466  0.98184747  0.92734873     0.14700
H367        H  0.08258913  0.24483299  0.92108544     0.13000
H368        H  0.08352591  0.19120359  0.86648224     0.13000
H369        H  0.08121610  0.02948767  0.13361087     0.13000
H370        H  0.08252314  0.97543870  0.07889462     0.13000
H371        H  0.13146942  0.13589746  0.02609196     0.26200
H372        H  0.13326009  0.08504363  0.97433974     0.26200
C373        C  0.89268123  0.76024076  0.22752138    -0.03300
C374        C  0.92976708  0.73905327  0.22500965    -0.09000
C375        C  0.93010638  0.69640410  0.22462806    -0.16700
C376        C  0.89346012  0.67440971  0.22681941     0.25500
C377        C  0.85644139  0.69520339  0.22939812    -0.18300
C378        C  0.85600780  0.73780626  0.22973444    -0.07300
C379        C  0.89377719  0.63052390  0.22673893    -0.13700
C380        C  0.89356637  0.59375390  0.22704762    -0.13400
C381        C  0.89276241  0.54986149  0.22772508     0.25400
C382        C  0.85585866  0.52898176  0.22240760    -0.18800
C383        C  0.85492833  0.48634768  0.22309205    -0.07300
C384        C  0.89099984  0.46401633  0.22894358    -0.03400
C385        C  0.92797203  0.48529598  0.23435851    -0.08700
C386        C  0.92879184  0.52793895  0.23381584    -0.16300
H387        H  0.95849634  0.75539561  0.22319562     0.11800
H388        H  0.95894308  0.68059204  0.22266115     0.11100
H389        H  0.82789622  0.67848622  0.23117396     0.11000
H390        H  0.82693082  0.75313926  0.23171442     0.11600
H391        H  0.82778173  0.54566158  0.21771892     0.11600
H392        H  0.82602383  0.47089934  0.21876140     0.11600
H393        H  0.95626840  0.46902173  0.23905254     0.11700
H394        H  0.95751933  0.54379342  0.23805411     0.10500
C395        C  0.89061737  0.33927491  0.64780870    -0.03300
C396        C  0.85379172  0.33667339  0.62593051    -0.09000
C397        C  0.85394666  0.33642225  0.58334312    -0.16700
C398        C  0.89082596  0.33882168  0.56203231     0.25500
C399        C  0.92762900  0.34157915  0.58346337    -0.18300
C400        C  0.92757076  0.34176980  0.62610404    -0.07300
C401        C  0.89077941  0.33845211  0.51818904    -0.13700
C402        C  0.89032879  0.33829031  0.48145142    -0.13400
C403        C  0.88991873  0.33843989  0.43759675     0.25400
C404        C  0.92645838  0.33475017  0.41601259    -0.18800
C405        C  0.92625213  0.33528985  0.37339980    -0.07300
C406        C  0.88939392  0.33941692  0.35178643    -0.03400
C407        C  0.85277783  0.34303001  0.37377599    -0.08700
C408        C  0.85308542  0.34258603  0.41641893    -0.16300
H409        H  0.82482756  0.33467070  0.64168853     0.11800
H410        H  0.82529293  0.33429902  0.56703724     0.11100
H411        H  0.95635546  0.34350053  0.56722829     0.11000
H412        H  0.95641548  0.34386049  0.64203036     0.11600
H413        H  0.95513613  0.33155528  0.43212236     0.11600
H414        H  0.95494859  0.33238348  0.35741269     0.11600
H415        H  0.82391670  0.34632938  0.35806317     0.11700
H416        H  0.82462200  0.34552173  0.43285450     0.10500
C417        C  0.88362572  0.88140337  0.64559954    -0.03300
C418        C  0.84696709  0.88593037  0.62373432    -0.09000
C419        C  0.84718930  0.88673321  0.58104317    -0.16700
C420        C  0.88397491  0.88290413  0.55978531     0.25500
C421        C  0.92049503  0.87832260  0.58129885    -0.18300
C422        C  0.92037527  0.87760559  0.62386270    -0.07300
C423        C  0.88449094  0.88331258  0.51591868    -0.13700
C424        C  0.88580204  0.88321321  0.47919052    -0.13400
C425        C  0.88712697  0.88283563  0.43534507     0.25400
C426        C  0.92440658  0.88655236  0.41478103    -0.18800
C427        C  0.92547800  0.88644396  0.37211842    -0.07300
C428        C  0.88918726  0.88269346  0.34953601    -0.03400
C429        C  0.85193684  0.87879381  0.37057262    -0.08700
C430        C  0.85096569  0.87882770  0.41314677    -0.16300
H431        H  0.81820325  0.88899764  0.63956924     0.11800
H432        H  0.81871658  0.89025894  0.56464394     0.11100
H433        H  0.94911311  0.87526488  0.56515631     0.11000
H434        H  0.94912165  0.87400591  0.63971985     0.11600
H435        H  0.95260814  0.88962321  0.43170305     0.11600
H436        H  0.95463123  0.88948660  0.35685912     0.11600
H437        H  0.82346372  0.87571561  0.35415622     0.11700
H438        H  0.82196471  0.87584997  0.42874997     0.10500
C439        C  0.88505061  0.75714592  0.76936838    -0.03300
C440        C  0.92205156  0.73578094  0.77258319    -0.09000
C441        C  0.92232312  0.69318865  0.77351985    -0.16700
C442        C  0.88570462  0.67132276  0.77115648     0.25500
C443        C  0.84872005  0.69222720  0.76776930    -0.18300
C444        C  0.84834981  0.73489565  0.76692781    -0.07300
C445        C  0.88624074  0.62746213  0.77222352    -0.13700
C446        C  0.88714904  0.59072627  0.77299210    -0.13400
C447        C  0.88793650  0.54687564  0.77340463     0.25400
C448        C  0.85139430  0.52478049  0.77543166    -0.18800
C449        C  0.85189855  0.48220764  0.77480282    -0.07300
C450        C  0.88905476  0.46112669  0.77215217    -0.03400
C451        C  0.92570080  0.48359411  0.77063554    -0.08700
C452        C  0.92509930  0.52622429  0.77119858    -0.16300
H453        H  0.95083815  0.75195011  0.77458432     0.11800
H454        H  0.95111487  0.67731006  0.77612054     0.11100
H455        H  0.82018543  0.67556320  0.76586838     0.11000
H456        H  0.81938817  0.75042038  0.76436530     0.11600
H457        H  0.82247367  0.54047068  0.77722746     0.11600
H458        H  0.82316118  0.46584353  0.77625935     0.11600
H459        H  0.95479246  0.46828273  0.76871464     0.11700
H460        H  0.95357832  0.54306733  0.76966532     0.10500
C461        C  0.53588039  0.11369344  0.22881026    -0.03300
C462        C  0.51419370  0.07678395  0.22507995    -0.09000
C463        C  0.47161817  0.07638946  0.22537101    -0.16700
C464        C  0.45011163  0.11278452  0.22952986     0.25500
C465        C  0.47134094  0.14966430  0.23351718    -0.18300
C466        C  0.51399774  0.15016622  0.23310324    -0.07300
C467        C  0.40627438  0.11213693  0.22952156    -0.13700
C468        C  0.36954765  0.11111941  0.22938617    -0.13400
C469        C  0.32571072  0.11026683  0.22926748     0.25400
C470        C  0.30402254  0.14666726  0.22510843    -0.18800
C471        C  0.26144760  0.14610697  0.22526192    -0.07300
C472        C  0.23992904  0.10903257  0.22949245    -0.03400
C473        C  0.26199920  0.07253228  0.23353817    -0.08700
C474        C  0.30465965  0.07319351  0.23346378    -0.16300
H475        H  0.53009721  0.04818144  0.22168975     0.11800
H476        H  0.45547112  0.04768726  0.22228095     0.11100
H477        H  0.45493681  0.17801557  0.23681534     0.11000
H478        H  0.52979998  0.17903315  0.23618801     0.11600
H479        H  0.32002263  0.17551861  0.22183216     0.11600
H480        H  0.24541342  0.17474435  0.22199941     0.11600
H481        H  0.24634472  0.04352765  0.23688607     0.11700
H482        H  0.32120603  0.04482831  0.23671719     0.10500
C483        C  0.11833103  0.10781773  0.64843496    -0.03300
C484        C  0.11344843  0.14409901  0.62559666    -0.09000
C485        C  0.11363752  0.14343844  0.58301980    -0.16700
C486        C  0.11882757  0.10660428  0.56271784     0.25500
C487        C  0.12385185  0.07035134  0.58511813    -0.18300
C488        C  0.12355091  0.07090533  0.62773404    -0.07300
C489        C  0.11887793  0.10613300  0.51890618    -0.13700
C490        C  0.11878413  0.10639887  0.48217981    -0.13400
C491        C  0.11860376  0.10707599  0.43835531     0.25400
C492        C  0.12548639  0.07117912  0.41694832    -0.18800
C493        C  0.12508224  0.07172902  0.37434919    -0.07300
C494        C  0.11796153  0.10830425  0.35261809    -0.03400
C495        C  0.11131169  0.14429882  0.37441205    -0.08700
C496        C  0.11151888  0.14362191  0.41704167    -0.16300
H497        H  0.10930650  0.17298879  0.64059514     0.11800
H498        H  0.10970894  0.17166031  0.56593323     0.11100
H499        H  0.12792167  0.04167289  0.56966279     0.11000
H500        H  0.12749914  0.04248396  0.64443393     0.11600
H501        H  0.13107210  0.04275098  0.43317737     0.11600
H502        H  0.13049662  0.04355318  0.35844836     0.11600
H503        H  0.10565902  0.17289171  0.35854941     0.11700
H504        H  0.10615590  0.17158114  0.43336892     0.10500
C505        C  0.66009694  0.11331381  0.35024522    -0.03300
C506        C  0.65651097  0.07607251  0.37186879    -0.09000
C507        C  0.65728644  0.07512682  0.41443719    -0.16700
C508        C  0.66172987  0.11130188  0.43606860     0.25500
C509        C  0.66534435  0.14854830  0.41491907    -0.18300
C510        C  0.66448938  0.14959688  0.37223713    -0.07300
C511        C  0.66225252  0.11004448  0.47994558    -0.13700
C512        C  0.66218268  0.10867999  0.51669985    -0.13400
C513        C  0.66153968  0.10791527  0.56058115     0.25400
C514        C  0.66443554  0.14445137  0.58185147    -0.18800
C515        C  0.66333831  0.14410536  0.62441081    -0.07300
C516        C  0.65942251  0.10710883  0.64640778    -0.03400
C517        C  0.65659771  0.07045579  0.62478186    -0.08700
C518        C  0.65760425  0.07090292  0.58209332    -0.16300
H519        H  0.65303154  0.04757543  0.35592109     0.11800
H520        H  0.65440973  0.04614875  0.43048164     0.11100
H521        H  0.66876457  0.17675743  0.43140707     0.11000
H522        H  0.66738471  0.17871428  0.35650599     0.11600
H523        H  0.66744738  0.17326322  0.56552710     0.11600
H524        H  0.66570949  0.17287461  0.64006320     0.11600
H525        H  0.65356840  0.04150732  0.64080152     0.11700
H526        H  0.65527797  0.04242497  0.56588692     0.10500
C527        C  0.53610669  0.10758445  0.77046733    -0.03300
C528        C  0.51445235  0.07040685  0.77086014    -0.09000
C529        C  0.47183036  0.07004685  0.77138162    -0.16700
C530        C  0.45033436  0.10677615  0.77156443     0.25500
C531        C  0.47156807  0.14388630  0.77123492    -0.18300
C532        C  0.51417421  0.14433932  0.77067251    -0.07300
C533        C  0.40650107  0.10650033  0.77191908    -0.13700
C534        C  0.36977457  0.10690507  0.77202634    -0.13400
C535        C  0.32595710  0.10777988  0.77200915     0.25400
C536        C  0.30545117  0.14478685  0.76658039    -0.18800
C537        C  0.26281927  0.14563841  0.76657475    -0.07300
C538        C  0.24022230  0.10937766  0.77189758    -0.03400
C539        C  0.26118042  0.07234707  0.77731251    -0.08700
C540        C  0.30375001  0.07160087  0.77739818    -0.16300
H541        H  0.53040791  0.04158920  0.77071346     0.11800
H542        H  0.45566231  0.04114697  0.77161828     0.11100
H543        H  0.45518521  0.17248704  0.77136415     0.11000
H544        H  0.52989777  0.17345676  0.77042885     0.11600
H545        H  0.32241181  0.17296970  0.76235714     0.11600
H546        H  0.24760023  0.17459798  0.76225917     0.11600
H547        H  0.24471215  0.04390063  0.78156126     0.11700
H548        H  0.31933294  0.04280254  0.78164364     0.10500
C549        C  0.24175082  0.88156121  0.99675418    -0.03300
C550        C  0.26401385  0.89231131  0.03167249    -0.09000
C551        C  0.30665215  0.89284746  0.03086295    -0.16700
C552        C  0.32748315  0.88228527  0.99531186     0.25500
C553        C  0.30555693  0.87118560  0.96056204    -0.18300
C554        C  0.26295667  0.87096378  0.96119246    -0.07300
C555        C  0.37133366  0.88275122  0.99444876    -0.13700
C556        C  0.40807647  0.88296227  0.99381836    -0.13400
C557        C  0.45193690  0.88307204  0.99391811     0.25400
C558        C  0.47359562  0.88003577  0.95731969    -0.18800
C559        C  0.51625782  0.88006228  0.95764137    -0.07300
C560        C  0.53773921  0.88298170  0.99466718    -0.03400
C561        C  0.51562739  0.88604030  0.03123624    -0.08700
C562        C  0.47304051  0.88612613  0.03081445    -0.16300
H563        H  0.24848248  0.90074541  0.05941663     0.11800
H564        H  0.32335540  0.90146194  0.05794433     0.11100
H565        H  0.32138355  0.86285179  0.93293192     0.11000
H566        H  0.24661879  0.86232791  0.93391441     0.11600
H567        H  0.45752976  0.87764341  0.92857301     0.11600
H568        H  0.53237572  0.87762169  0.92897503     0.11600
H569        H  0.53121082  0.88844948  0.06021820     0.11700
H570        H  0.45656493  0.88852030  0.05930259     0.10500
C571        C  0.11920728  0.75876132  0.99513084    -0.03300
C572        C  0.11543801  0.73588425  0.03155627    -0.09000
C573        C  0.11550596  0.69330672  0.03086734    -0.16700
C574        C  0.11941925  0.67302938  0.99384861     0.25500
C575        C  0.12332497  0.69546695  0.95744407    -0.18300
C576        C  0.12317478  0.73808888  0.95803291    -0.07300
C577        C  0.11910931  0.62920489  0.99333911    -0.13700
C578        C  0.11851808  0.59246886  0.99374215    -0.13400
C579        C  0.11765526  0.54863272  0.99496709     0.25400
C580        C  0.10641982  0.52688327  0.96029499    -0.18800
C581        C  0.10588744  0.48426189  0.96143061    -0.07300
C582        C  0.11633546  0.46288861  0.99741217    -0.03400
C583        C  0.12723274  0.48502320  0.03220405    -0.08700
C584        C  0.12802376  0.52764249  0.03090718    -0.16300
H585        H  0.11229965  0.75085038  0.06059927     0.11800
H586        H  0.11243928  0.67619927  0.05921201     0.11100
H587        H  0.12636810  0.68003272  0.92861841     0.11000
H588        H  0.12622304  0.75481066  0.92948525     0.11600
H589        H  0.09823821  0.54285130  0.93235331     0.11600
H590        H  0.09719416  0.46805317  0.93420262     0.11600
H591        H  0.13558544  0.46940861  0.06026547     0.11700
H592        H  0.13674554  0.54421647  0.05792164     0.10500
C593        C  0.65735459  0.46405122  0.00187709    -0.03300
C594        C  0.66097649  0.48638933  0.96506093    -0.09000
C595        C  0.66056939  0.52899918  0.96500888    -0.16700
C596        C  0.65644938  0.54987747  0.00166809     0.25500
C597        C  0.65279761  0.52796913  0.03843018    -0.18300
C598        C  0.65331601  0.48531923  0.03858471    -0.07300
C599        C  0.65642531  0.59376239  0.00154576    -0.13700
C600        C  0.65694917  0.63052843  0.00103841    -0.13400
C601        C  0.65807845  0.67440878  0.99993618     0.25400
C602        C  0.67101141  0.69595061  0.03416324    -0.18800
C603        C  0.67200350  0.73857220  0.03309877    -0.07300
C604        C  0.66035291  0.76018944  0.99762123    -0.03400
C605        C  0.64779609  0.73829487  0.96325094    -0.08700
C606        C  0.64650104  0.69565535  0.96450040    -0.16300
H607        H  0.66423301  0.47097404  0.93626819     0.11800
H608        H  0.66350726  0.54565198  0.93638322     0.11100
H609        H  0.64966072  0.54385302  0.06699035     0.11000
H610        H  0.65041047  0.46903369  0.06738922     0.11600
H611        H  0.68018140  0.67982509  0.06170368     0.11600
H612        H  0.68198713  0.75460724  0.05999875     0.11600
H613        H  0.63847092  0.75412450  0.93562348     0.11700
H614        H  0.63649559  0.67925869  0.93781971     0.10500
C615        C  0.53573084  0.33812873  0.00255383    -0.03300
C616        C  0.51344259  0.33238692  0.96641451    -0.09000
C617        C  0.47082506  0.33175388  0.96713018    -0.16700
C618        C  0.44995622  0.33697410  0.00388057     0.25500
C619        C  0.47183968  0.34228754  0.04005714    -0.18300
C620        C  0.51445895  0.34276035  0.03945429    -0.07300
C621        C  0.40611449  0.33756784  0.00428294    -0.18500
C622        C  0.36939042  0.33847679  0.00400337    -0.13400
C623        C  0.32557299  0.33960208  0.00310096     0.25400
C624        C  0.30354674  0.34244887  0.03944889    -0.18800
C625        C  0.26095805  0.34310114  0.03861412    -0.07300
C626        C  0.23983132  0.34098925  0.00132906    -0.03400
C627        C  0.26226820  0.33838767  0.96491713    -0.08700
C628        C  0.30487827  0.33766148  0.96584997    -0.16300
H629        H  0.52890864  0.32848428  0.93757865     0.11800
H630        H  0.45415085  0.32754194  0.93896464     0.11100
H631        H  0.45597311  0.34632380  0.06867847     0.11000
H632        H  0.53071871  0.34720346  0.06779968     0.11600
H633        H  0.31927758  0.34400521  0.06844513     0.11600
H634        H  0.24460855  0.34518225  0.06718122     0.11600
H635        H  0.24693352  0.33666144  0.93574556     0.11700
H636        H  0.32167703  0.33546537  0.93753301     0.10500
loop_ 
_geom_bond_atom_site_label_1 
_geom_bond_atom_site_label_2 
_geom_bond_distance 
_geom_bond_site_symmetry_2 
_ccdc_geom_bond_type 
O1           Ni9   1.914       .  S
O1           C11   1.280       .  A
O2           Ni9   1.914       .  S
O2           C12   1.281       .  A
O3           Ni9   1.925       .  S
O3           C13   1.283   1_554  A
O4           Ni9   1.923       .  S
O4           C14   1.283       .  A
O5          Ni10   1.909       .  S
O5           C14   1.280   1_556  A
O6          Ni10   1.907       .  S
O6           C13   1.277       .  A
O7          Ni10   1.918       .  S
O7           C12   1.282   1_556  A
O8          Ni10   1.918       .  S
O8           C11   1.281   1_556  A
Ni9         Ni10   2.376   1_554  S
C11         C189   1.514   1_554  S
C12         C615   1.480       .  S
C13         C325   1.513       .  S
C14         C593   1.481       .  S
O15         Ni23   1.925       .  S
O15          C25   1.282       .  A
O16         Ni23   1.921       .  S
O16          C26   1.282   1_554  A
O17         Ni23   1.910       .  S
O17          C27   1.280   1_554  A
O18         Ni23   1.912       .  S
O18          C28   1.280       .  A
O19         Ni24   1.918       .  S
O19          C28   1.282   1_556  A
O20         Ni24   1.921       .  S
O20          C27   1.282       .  A
O21         Ni24   1.911       .  S
O21          C26   1.280       .  A
O22         Ni24   1.907       .  S
O22          C25   1.278   1_556  A
Ni23        Ni24   2.377   1_554  S
C25         C359   1.514       .  S
C26         C582   1.478       .  S
C27         C191   1.510   1_455  S
C28         C626   1.480       .  S
O29         Ni37   1.906       .  S
O29          C39   1.277   1_554  A
O30         Ni37   1.908       .  S
O30          C40   1.279   1_554  A
O31         Ni37   1.916       .  S
O31          C41   1.281   1_554  A
O32         Ni37   1.916       .  S
O32          C42   1.282   1_554  A
O33         Ni38   1.916       .  S
O33          C42   1.281       .  A
O34         Ni38   1.915       .  S
O34          C41   1.281       .  A
O35         Ni38   1.925       .  S
O35          C40   1.283       .  A
O36         Ni38   1.926       .  S
O36          C39   1.284       .  A
Ni37        Ni38   2.377   1_554  S
C39         C327   1.511   1_565  S
C40         C604   1.479       .  S
C41         C225   1.510       .  S
C42         C560   1.480       .  S
O43         Ni51   1.922       .  S
O43          C53   1.282   1_554  A
O44         Ni51   1.920       .  S
O44          C54   1.282   1_554  A
O45         Ni51   1.912       .  S
O45          C55   1.279   1_554  A
O46         Ni51   1.915       .  S
O46          C56   1.281   1_554  A
O47         Ni52   1.916       .  S
O47          C56   1.281       .  A
O48         Ni52   1.922       .  S
O48          C55   1.283       .  A
O49         Ni52   1.911       .  S
O49          C54   1.280       .  A
O50         Ni52   1.907       .  S
O50          C53   1.278       .  A
Ni51        Ni52   2.377   1_554  S
C53         C223   1.513   1_455  S
C54         C549   1.478       .  S
C55         C361   1.512   1_566  S
C56         C571   1.479       .  S
O57         Ni65   1.925       .  S
O57          C67   1.284       .  A
O58         Ni65   1.926       .  S
O58          C68   1.283       .  A
O59         Ni65   1.915       .  S
O59          C69   1.280       .  A
O60         Ni65   1.916       .  S
O60          C70   1.281       .  A
O61         Ni66   1.916       .  S
O61          C70   1.281       .  A
O62         Ni66   1.915       .  S
O62          C69   1.281       .  A
O63         Ni66   1.907       .  S
O63          C68   1.279       .  A
O64         Ni66   1.907       .  S
O64          C67   1.277       .  A
Ni65        Ni66   2.377       .  S
C67         C328   1.512       .  S
C68         C516   1.481       .  S
C69         C293   1.511       .  S
C70         C527   1.480       .  S
O71         Ni79   1.910       .  S
O71          C81   1.279       .  A
O72         Ni79   1.910       .  S
O72          C82   1.280       .  A
O73         Ni79   1.918       .  S
O73          C83   1.281       .  A
O74         Ni79   1.916       .  S
O74          C84   1.281       .  A
O75         Ni80   1.914       .  S
O75          C84   1.281       .  A
O76         Ni80   1.914       .  S
O76          C83   1.280       .  A
O77         Ni80   1.920       .  S
O77          C82   1.282       .  A
O78         Ni80   1.922       .  S
O78          C81   1.282       .  A
Ni79        Ni80   2.376       .  S
C81         C291   1.512   1_455  S
C82         C538   1.479       .  S
C83         C362   1.512       .  S
C84         C483   1.479       .  S
O85         Ni93   1.911       .  S
O85          C95   1.279       .  A
O86         Ni93   1.913       .  S
O86          C96   1.280       .  A
O87         Ni93   1.925       .  S
O87          C97   1.283       .  A
O88         Ni93   1.922       .  S
O88          C98   1.283       .  A
O89         Ni94   1.910       .  S
O89          C98   1.280       .  A
O90         Ni94   1.906       .  S
O90          C97   1.278       .  A
O91         Ni94   1.919       .  S
O91          C96   1.282       .  A
O92         Ni94   1.922       .  S
O92          C95   1.282       .  A
Ni93        Ni94   2.377       .  S
C95         C360   1.513       .  S
C96         C494   1.479       .  S
C97         C260   1.512   1_455  S
C98         C472   1.480       .  S
O99        Ni107   1.912       .  S
O99         C109   1.280       .  A
O100       Ni107   1.910       .  S
O100        C110   1.280       .  A
O101       Ni107   1.908       .  S
O101        C111   1.278       .  A
O102       Ni107   1.908       .  S
O102        C112   1.280       .  A
O103       Ni108   1.925       .  S
O103        C112   1.283       .  A
O104       Ni108   1.924       .  S
O104        C111   1.283       .  A
O105       Ni108   1.921       .  S
O105        C110   1.282       .  A
O106       Ni108   1.920       .  S
O106        C109   1.282       .  A
Ni107      Ni108   2.377       .  S
C109        C258   1.512       .  S
C110        C461   1.480       .  S
C111        C326   1.512       .  S
C112        C505   1.481       .  S
O113       Ni121   1.910       .  S
O113        C123   1.279       .  A
O114       Ni121   1.909       .  S
O114        C124   1.280       .  A
O115       Ni121   1.914       .  S
O115        C125   1.280       .  A
O116       Ni121   1.911       .  S
O116        C126   1.280       .  A
O117       Ni122   1.921       .  S
O117        C126   1.282       .  A
O118       Ni122   1.920       .  S
O118        C125   1.282       .  A
O119       Ni122   1.922       .  S
O119        C124   1.282       .  A
O120       Ni122   1.921       .  S
O120        C123   1.282       .  A
Ni121      Ni122   2.376       .  S
C123        C226   1.513       .  S
C124        C417   1.480       .  S
C125        C294   1.512   1_565  S
C126        C439   1.481       .  S
O127       Ni135   1.920       .  S
O127        C137   1.281       .  A
O128       Ni135   1.919       .  S
O128        C138   1.282       .  A
O129       Ni135   1.917       .  S
O129        C139   1.281       .  A
O130       Ni135   1.919       .  S
O130        C140   1.282       .  A
O131       Ni136   1.912       .  S
O131        C140   1.281       .  A
O132       Ni136   1.911       .  S
O132        C139   1.279       .  A
O133       Ni136   1.910       .  S
O133        C138   1.280       .  A
O134       Ni136   1.910       .  S
O134        C137   1.279       .  A
Ni135      Ni136   2.377       .  S
C137        C292   1.511       .  S
C138        C450   1.480       .  S
C139        C192   1.511       .  S
C140        C395   1.480       .  S
O141       Ni149   1.912       .  S
O141        C151   1.280       .  A
O142       Ni149   1.912       .  S
O142        C152   1.281       .  A
O143       Ni149   1.912       .  S
O143        C153   1.279       .  A
O144       Ni149   1.911       .  S
O144        C154   1.280       .  A
O145       Ni150   1.921       .  S
O145        C154   1.283       .  A
O146       Ni150   1.918       .  S
O146        C153   1.282       .  A
O147       Ni150   1.921       .  S
O147        C152   1.282       .  A
O148       Ni150   1.919       .  S
O148        C151   1.281       .  A
Ni149      Ni150   2.377       .  S
C151        C224   1.510       .  S
C152        C428   1.481       .  S
C153        C259   1.510   1_565  S
C154        C373   1.481       .  S
O155       Ni163   1.917       .  S
O155        C165   1.281       .  A
O156       Ni163   1.914       .  S
O156        C166   1.281       .  A
O157       Ni163   1.909       .  S
O157        C167   1.279       .  A
O158       Ni163   1.911       .  S
O158        C168   1.280       .  A
O159       Ni164   1.922       .  S
O159        C168   1.283       .  A
O160       Ni164   1.925       .  S
O160        C167   1.283       .  A
O161       Ni164   1.918       .  S
O161        C166   1.282       .  A
O162       Ni164   1.916       .  S
O162        C165   1.280       .  A
Ni163      Ni164   2.376       .  S
C165        C190   1.512       .  S
C166        C406   1.481       .  S
C167        C257   1.514       .  S
C168        C384   1.481       .  S
N169        C174   1.360       .  A
N169        C173   1.359       .  A
N169        H201   1.039       .  S
N170        C177   1.358       .  A
N170        C178   1.358       .  A
N171        C176   1.358       .  A
N171        C175   1.357       .  A
N171        H202   1.038       .  S
N172        C179   1.356       .  A
N172        C180   1.356       .  A
C173        C181   1.387       .  A
C173        C189   1.423   1_554  A
C174        C190   1.421       .  A
C174        C182   1.385       .  A
C175        C183   1.387       .  A
C175        C192   1.420       .  A
C176        C191   1.418       .  A
C176        C184   1.386       .  A
C177        C189   1.422       .  A
C177        C185   1.386       .  A
C178        C192   1.422       .  A
C178        C186   1.386       .  A
C179        C187   1.386       .  A
C179        C190   1.419       .  A
C180        C188   1.386       .  A
C180        C191   1.419   1_554  A
C181        C182   1.364       .  A
C181        H193   1.080       .  S
C182        H194   1.080       .  S
C183        C184   1.365       .  A
C183        H195   1.081       .  S
C184        H196   1.081   1_655  S
C185        C186   1.358       .  A
C185        H197   1.080       .  S
C186        H198   1.079       .  S
C187        C188   1.359       .  A
C187        H199   1.080       .  S
C188        H200   1.080   1_655  S
N203        C208   1.358       .  A
N203        C207   1.358       .  A
N203        H235   1.040       .  S
N204        C211   1.358       .  A
N204        C212   1.358       .  A
N205        C210   1.358       .  A
N205        C209   1.358       .  A
N205        H236   1.041       .  S
N206        C213   1.356       .  A
N206        C214   1.356       .  A
C207        C215   1.386       .  A
C207        C223   1.421   1_554  A
C208        C224   1.420       .  A
C208        C216   1.386       .  A
C209        C217   1.386       .  A
C209        C226   1.419       .  A
C210        C225   1.419       .  A
C210        C218   1.386       .  A
C211        C223   1.424       .  A
C211        C219   1.387       .  A
C212        C226   1.422       .  A
C212        C220   1.386       .  A
C213        C221   1.387       .  A
C213        C224   1.420       .  A
C214        C222   1.386       .  A
C214        C225   1.418   1_554  A
C215        C216   1.366       .  A
C215        H227   1.081   1_655  S
C216        H228   1.080       .  S
C217        C218   1.364       .  A
C217        H229   1.080       .  S
C218        H230   1.080       .  S
C219        C220   1.356       .  A
C219        H231   1.079   1_655  S
C220        H232   1.079       .  S
C221        C222   1.360       .  A
C221        H233   1.080       .  S
C222        H234   1.080       .  S
N237        C242   1.358       .  A
N237        C241   1.358       .  A
N237        H269   1.040       .  S
N238        C245   1.358       .  A
N238        C246   1.358       .  A
N239        C244   1.356       .  A
N239        C243   1.357       .  A
N239        H270   1.041       .  S
N240        C247   1.357       .  A
N240        C248   1.357       .  A
C241        C249   1.386       .  A
C241        C257   1.420       .  A
C242        C258   1.420       .  A
C242        C250   1.386       .  A
C243        C251   1.386       .  A
C243        C260   1.417       .  A
C244        C259   1.417       .  A
C244        C252   1.386       .  A
C245        C257   1.424       .  A
C245        C253   1.387       .  A
C246        C260   1.422       .  A
C246        C254   1.386       .  A
C247        C255   1.387       .  A
C247        C258   1.422       .  A
C248        C256   1.386       .  A
C248        C259   1.421       .  A
C249        C250   1.366       .  A
C249        H261   1.080       .  S
C250        H262   1.080       .  S
C251        C252   1.365       .  A
C251        H263   1.081   1_655  S
C252        H264   1.081   1_545  S
C253        C254   1.357       .  A
C253        H265   1.079       .  S
C254        H266   1.079   1_655  S
C255        C256   1.360       .  A
C255        H267   1.079       .  S
C256        H268   1.079   1_545  S
N271        C276   1.358       .  A
N271        C275   1.358       .  A
N271        H303   1.040       .  S
N272        C279   1.358       .  A
N272        C280   1.358       .  A
N273        C278   1.358       .  A
N273        C277   1.358       .  A
N273        H304   1.040       .  S
N274        C281   1.357       .  A
N274        C282   1.357       .  A
C275        C283   1.386       .  A
C275        C291   1.420       .  A
C276        C292   1.420       .  A
C276        C284   1.386       .  A
C277        C285   1.386       .  A
C277        C294   1.419       .  A
C278        C293   1.419       .  A
C278        C286   1.386       .  A
C279        C291   1.423       .  A
C279        C287   1.387       .  A
C280        C294   1.421       .  A
C280        C288   1.385       .  A
C281        C289   1.387       .  A
C281        C292   1.421       .  A
C282        C290   1.386       .  A
C282        C293   1.419       .  A
C283        C284   1.365       .  A
C283        H295   1.081   1_655  S
C284        H296   1.080       .  S
C285        C286   1.364       .  A
C285        H297   1.079   1_545  S
C286        H298   1.079       .  S
C287        C288   1.359       .  A
C287        H299   1.079   1_655  S
C288        H300   1.080   1_545  S
C289        C290   1.359       .  A
C289        H301   1.080       .  S
C290        H302   1.080       .  S
N305        C310   1.358       .  A
N305        C309   1.358       .  A
N305        H337   1.041       .  S
N306        C313   1.359       .  A
N306        C314   1.359       .  A
N307        C312   1.357       .  A
N307        C311   1.356       .  A
N307        H338   1.041       .  S
N308        C315   1.358       .  A
N308        C316   1.358       .  A
C309        C317   1.386       .  A
C309        C325   1.418   1_554  A
C310        C326   1.417       .  A
C310        C318   1.386       .  A
C311        C319   1.385       .  A
C311        C328   1.416       .  A
C312        C327   1.415       .  A
C312        C320   1.386       .  A
C313        C325   1.425       .  A
C313        C321   1.387       .  A
C314        C328   1.424       .  A
C314        C322   1.386       .  A
C315        C323   1.387       .  A
C315        C326   1.423       .  A
C316        C324   1.386       .  A
C316        C327   1.423   1_554  A
C317        C318   1.365       .  A
C317        H329   1.081       .  S
C318        H330   1.080       .  S
C319        C320   1.365       .  A
C319        H331   1.080       .  S
C320        H332   1.080   1_545  S
C321        C322   1.358       .  A
C321        H333   1.078       .  S
C322        H334   1.078       .  S
C323        C324   1.358       .  A
C323        H335   1.079       .  S
C324        H336   1.079   1_545  S
N339        C344   1.359       .  A
N339        C343   1.359       .  A
N339        H371   1.040       .  S
N340        C347   1.358       .  A
N340        C348   1.359       .  A
N341        C346   1.357       .  A
N341        C345   1.358       .  A
N341        H372   1.041       .  S
N342        C349   1.358       .  A
N342        C350   1.358       .  A
C343        C351   1.386       .  A
C343        C359   1.421       .  A
C344        C360   1.421       .  A
C344        C352   1.386       .  A
C345        C353   1.387       .  A
C345        C362   1.418       .  A
C346        C361   1.417   1_556  A
C346        C354   1.386       .  A
C347        C359   1.424   1_556  A
C347        C355   1.387       .  A
C348        C362   1.421       .  A
C348        C356   1.385       .  A
C349        C357   1.387       .  A
C349        C360   1.423       .  A
C350        C358   1.386       .  A
C350        C361   1.421       .  A
C351        C352   1.366       .  A
C351        H363   1.080       .  S
C352        H364   1.081       .  S
C353        C354   1.365       .  A
C353        H365   1.081       .  S
C354        H366   1.081   1_545  S
C355        C356   1.357       .  A
C355        H367   1.079       .  S
C356        H368   1.079       .  S
C357        C358   1.359       .  A
C357        H369   1.079       .  S
C358        H370   1.079   1_545  S
C373        C374   1.407       .  A
C373        C378   1.408       .  A
C374        C375   1.399       .  A
C374        H387   1.083       .  S
C375        C376   1.400       .  A
C375        H388   1.083       .  S
C376        C377   1.399       .  A
C376        C379   1.439       .  S
C377        C378   1.398       .  A
C377        H389   1.084       .  S
C378        H390   1.083       .  S
C379        C380   1.206       .  T
C380        C381   1.440       .  S
C381        C382   1.400       .  A
C381        C386   1.399       .  A
C382        C383   1.398       .  A
C382        H391   1.083       .  S
C383        C384   1.406       .  A
C383        H392   1.083       .  S
C384        C385   1.408       .  A
C385        C386   1.399       .  A
C385        H393   1.083       .  S
C386        H394   1.084       .  S
C395        C396   1.408       .  A
C395        C400   1.407       .  A
C396        C397   1.397       .  A
C396        H409   1.083       .  S
C397        C398   1.399       .  A
C397        H410   1.084       .  S
C398        C399   1.400       .  A
C398        C401   1.438       .  S
C399        C400   1.399       .  A
C399        H411   1.083       .  S
C400        H412   1.083       .  S
C401        C402   1.205       .  T
C402        C403   1.438       .  S
C403        C404   1.399       .  A
C403        C408   1.400       .  A
C404        C405   1.398       .  A
C404        H413   1.084       .  S
C405        C406   1.407       .  A
C405        H414   1.083       .  S
C406        C407   1.407       .  A
C407        C408   1.399       .  A
C407        H415   1.083       .  S
C408        H416   1.084       .  S
C417        C418   1.407       .  A
C417        C422   1.408       .  A
C418        C419   1.400       .  A
C418        H431   1.083       .  S
C419        C420   1.401       .  A
C419        H432   1.083       .  S
C420        C421   1.398       .  A
C420        C423   1.439       .  S
C421        C422   1.396       .  A
C421        H433   1.084       .  S
C422        H434   1.083       .  S
C423        C424   1.205       .  T
C424        C425   1.439       .  S
C425        C426   1.401       .  A
C425        C430   1.398       .  A
C426        C427   1.400       .  A
C426        H435   1.084       .  S
C427        C428   1.407       .  A
C427        H436   1.083       .  S
C428        C429   1.408       .  A
C429        C430   1.397       .  A
C429        H437   1.083       .  S
C430        H438   1.084       .  S
C439        C440   1.408       .  A
C439        C444   1.407       .  A
C440        C441   1.397       .  A
C440        H453   1.083       .  S
C441        C442   1.398       .  A
C441        H454   1.084       .  S
C442        C443   1.400       .  A
C442        C445   1.439       .  S
C443        C444   1.399       .  A
C443        H455   1.083       .  S
C444        H456   1.083       .  S
C445        C446   1.205       .  T
C446        C447   1.438       .  S
C447        C448   1.398       .  A
C447        C452   1.400       .  A
C448        C449   1.397       .  A
C448        H457   1.084       .  S
C449        C450   1.408       .  A
C449        H458   1.083       .  S
C450        C451   1.407       .  A
C451        C452   1.399       .  A
C451        H459   1.083       .  S
C452        H460   1.083       .  S
C461        C462   1.408       .  A
C461        C466   1.407       .  A
C462        C463   1.396       .  A
C462        H475   1.083       .  S
C463        C464   1.398       .  A
C463        H476   1.084       .  S
C464        C465   1.400       .  A
C464        C467   1.438       .  S
C465        C466   1.399       .  A
C465        H477   1.083       .  S
C466        H478   1.083       .  S
C467        C468   1.205       .  T
C468        C469   1.438       .  S
C469        C470   1.398       .  A
C469        C474   1.400       .  A
C470        C471   1.396       .  A
C470        H479   1.084       .  S
C471        C472   1.408       .  A
C471        H480   1.083       .  S
C472        C473   1.407       .  A
C473        C474   1.399       .  A
C473        H481   1.083       .  S
C474        H482   1.083       .  S
C483        C484   1.407       .  A
C483        C488   1.408       .  A
C484        C485   1.397       .  A
C484        H497   1.083       .  S
C485        C486   1.399       .  A
C485        H498   1.084       .  S
C486        C487   1.399       .  A
C486        C489   1.437       .  S
C487        C488   1.398       .  A
C487        H499   1.084       .  S
C488        H500   1.083       .  S
C489        C490   1.205       .  T
C490        C491   1.437       .  S
C491        C492   1.399       .  A
C491        C496   1.400       .  A
C492        C493   1.397       .  A
C492        H501   1.084       .  S
C493        C494   1.407       .  A
C493        H502   1.083       .  S
C494        C495   1.407       .  A
C495        C496   1.398       .  A
C495        H503   1.083       .  S
C496        H504   1.084       .  S
C505        C506   1.408       .  A
C505        C510   1.407       .  A
C506        C507   1.396       .  A
C506        H519   1.083       .  S
C507        C508   1.398       .  A
C507        H520   1.084       .  S
C508        C509   1.401       .  A
C508        C511   1.439       .  S
C509        C510   1.400       .  A
C509        H521   1.083       .  S
C510        H522   1.083       .  S
C511        C512   1.206       .  T
C512        C513   1.439       .  S
C513        C514   1.398       .  A
C513        C518   1.401       .  A
C514        C515   1.396       .  A
C514        H523   1.084       .  S
C515        C516   1.408       .  A
C515        H524   1.083       .  S
C516        C517   1.407       .  A
C517        C518   1.400       .  A
C517        H525   1.083       .  S
C518        H526   1.083       .  S
C527        C528   1.408       .  A
C527        C532   1.407       .  A
C528        C529   1.398       .  A
C528        H541   1.083       .  S
C529        C530   1.399       .  A
C529        H542   1.084       .  S
C530        C531   1.399       .  A
C530        C533   1.438       .  S
C531        C532   1.398       .  A
C531        H543   1.084       .  S
C532        H544   1.083       .  S
C533        C534   1.205       .  T
C534        C535   1.438       .  S
C535        C536   1.400       .  A
C535        C540   1.398       .  A
C536        C537   1.399       .  A
C536        H545   1.084       .  S
C537        C538   1.407       .  A
C537        H546   1.083       .  S
C538        C539   1.408       .  A
C539        C540   1.397       .  A
C539        H547   1.083       .  S
C540        H548   1.084       .  S
C549        C550   1.406   1_556  A
C549        C554   1.407       .  A
C550        C551   1.399       .  A
C550        H563   1.083       .  S
C551        C552   1.400   1_554  A
C551        H564   1.084       .  S
C552        C553   1.399       .  A
C552        C555   1.439       .  S
C553        C554   1.397       .  A
C553        H565   1.084       .  S
C554        H566   1.083       .  S
C555        C556   1.205       .  T
C556        C557   1.439       .  S
C557        C558   1.400       .  A
C557        C562   1.398   1_556  A
C558        C559   1.399       .  A
C558        H567   1.084       .  S
C559        C560   1.408       .  A
C559        H568   1.083       .  S
C560        C561   1.407   1_556  A
C561        C562   1.397       .  A
C561        H569   1.083       .  S
C562        H570   1.084       .  S
C571        C572   1.407   1_556  A
C571        C576   1.408       .  A
C572        C573   1.397       .  A
C572        H585   1.083       .  S
C573        C574   1.399   1_554  A
C573        H586   1.084       .  S
C574        C575   1.399       .  A
C574        C577   1.438       .  S
C575        C576   1.398       .  A
C575        H587   1.084       .  S
C576        H588   1.083       .  S
C577        C578   1.205       .  T
C578        C579   1.438       .  S
C579        C580   1.399       .  A
C579        C584   1.400   1_556  A
C580        C581   1.398       .  A
C580        H589   1.084       .  S
C581        C582   1.407       .  A
C581        H590   1.083       .  S
C582        C583   1.406   1_556  A
C583        C584   1.398       .  A
C583        H591   1.083       .  S
C584        H592   1.084       .  S
C593        C594   1.408   1_554  A
C593        C598   1.406       .  A
C594        C595   1.398       .  A
C594        H607   1.083       .  S
C595        C596   1.399   1_556  A
C595        H608   1.084       .  S
C596        C597   1.400       .  A
C596        C599   1.439       .  S
C597        C598   1.399       .  A
C597        H609   1.083       .  S
C598        H610   1.083       .  S
C599        C600   1.206       .  T
C600        C601   1.439   1_554  S
C601        C602   1.399   1_556  A
C601        C606   1.400       .  A
C602        C603   1.398       .  A
C602        H611   1.084       .  S
C603        C604   1.408   1_554  A
C603        H612   1.083       .  S
C604        C605   1.405       .  A
C605        C606   1.399       .  A
C605        H613   1.083       .  S
C606        H614   1.083       .  S
C615        C616   1.407   1_554  A
C615        C620   1.408       .  A
C616        C617   1.398       .  A
C616        H629   1.083       .  S
C617        C618   1.399   1_556  A
C617        H630   1.084       .  S
C618        C619   1.399       .  A
C618        C621   1.438       .  S
C619        C620   1.398       .  A
C619        H631   1.084       .  S
C620        H632   1.083       .  S
C621        C622   1.205       .  T
C622        C623   1.438       .  S
C623        C624   1.399       .  A
C623        C628   1.400   1_554  A
C624        C625   1.397       .  A
C624        H633   1.084       .  S
C625        C626   1.408       .  A
C625        H634   1.083       .  S
C626        C627   1.407   1_554  A
C627        C628   1.398       .  A
C627        H635   1.083       .  S
C628        H636   1.084       .  S
