geometry optimzed in LAMMPS
_audit_creation_date              2020-11-30 
_audit_creation_method            'lammps2cif' 
_symmetry_space_group_name_H-M    'P1' 
_symmetry_Int_Tables_number       1 
_symmetry_cell_setting            triclinic 
loop_ 
_symmetry_equiv_pos_as_xyz 
  x,y,z 
_cell_length_a                    39.00257284 
_cell_length_b                    39.003419995680446 
_cell_length_c                    33.32554797136883 
_cell_angle_alpha                 89.99991014776955 
_cell_angle_beta                  89.99948865324713 
_cell_angle_gamma                 90.08057249653221 
loop_ 
_atom_site_label 
_atom_site_type_symbol 
_atom_site_fract_x 
_atom_site_fract_y 
_atom_site_fract_z 
_atom_site_charge 
O1          O  0.18311588  0.13571227  0.06269282    -0.81400
C2          C  0.15277625  0.02818579  0.16335683     0.98000
O3          O  0.18156307  0.02958595  0.14557653    -0.70500
O4          O  0.15822861  0.03826992  0.07010159    -0.74100
Al5        Al  0.19227519  0.06136353  0.10232021     1.49000
C6          C  0.13998509  0.05411887  0.04456437     0.93200
O7          O  0.09831014  0.10649216  0.10399544    -0.80300
O8          O  0.16762743  0.14767317  0.17379873    -0.73900
Al9        Al  0.14200894  0.12000552  0.08618625     1.90100
O10         O  0.10743792  0.11024350  0.16824870    -0.72900
O11         O  0.20265809  0.09082402  0.18742415    -0.72800
O12         O  0.14068829  0.05466067  0.17897134    -0.78400
O13         O  0.22891946  0.08337366  0.13016776    -0.76600
O14         O  0.16325877  0.09383738  0.12042140    -1.12800
O15         O  0.20736498  0.08564836  0.05427272    -0.72000
C16         C  0.20166924  0.11586367  0.04213596     0.98700
C17         C  0.08693587  0.10819829  0.13916803     0.95100
Al18       Al  0.15582175  0.09999080  0.17311829     1.55600
O19         O  0.13687543  0.08610134  0.04650995    -0.76600
C20         C  0.22743854  0.09760766  0.16421170     0.99300
C21         C  0.15441156  0.16970778  0.15086479     0.94200
O22         O  0.14140676  0.16079588  0.11789412    -0.81900
N23         N  0.11973484  0.03662909  0.01484678    -0.03100
C24         C  0.12185753  0.00362061  0.33578996    -0.00500
C25         C  0.09482351  0.99706965  0.30984000    -0.23300
C26         C  0.07643005  0.02675774  0.30543885    -0.23600
C27         C  0.09254952  0.05104887  0.32861979    -0.00600
H28         H  0.09197288  0.47494079  0.29071420     0.13200
H29         H  0.05677172  0.03134098  0.28314699     0.13300
N30         N  0.21337539  0.12704969  0.00332356    -0.03100
C31         C  0.24491736  0.12331075  0.32017202    -0.00500
C32         C  0.24868627  0.14537812  0.28807733    -0.23300
C33         C  0.21752821  0.16039820  0.28173054    -0.23600
C34         C  0.19592561  0.14827601  0.31132528    -0.00600
H35         H  0.27139737  0.14934699  0.27018917     0.13200
H36         H  0.21073594  0.17654402  0.25652128     0.13300
O37         O  0.11562722  0.43916012  0.22940292    -0.81400
C38         C  0.22321941  0.40906542  0.32994325     0.98000
O39         O  0.22185321  0.43783655  0.31212274    -0.70500
O40         O  0.21306655  0.41447170  0.23668968    -0.74100
Al41       Al  0.19003770  0.44850211  0.26890449     1.49000
C42         C  0.19718439  0.39616829  0.21119777     0.93200
O43         O  0.14487753  0.35447692  0.27071711    -0.80300
O44         O  0.10377959  0.42380004  0.00713127    -0.73900
Al45       Al  0.13134481  0.39811220  0.25288665     1.90100
O46         O  0.14112203  0.36364066  0.00163397    -0.72900
O47         O  0.16064582  0.45892008  0.02069881    -0.72800
O48         O  0.19674235  0.39698786  0.01230985    -0.78400
O49         O  0.16808672  0.48514359  0.29674993    -0.76600
O50         O  0.15755640  0.41944587  0.28707307    -1.12800
O51         O  0.16569616  0.46352576  0.22088402    -0.72000
C52         C  0.13545095  0.45777059  0.20881864     0.98700
C53         C  0.14318151  0.34312554  0.30590075     0.95100
Al54       Al  0.15142648  0.41205060  0.00645472     1.55600
O55         O  0.16519533  0.39303906  0.21314993    -0.76600
C56         C  0.15384171  0.48365770  0.33079172     0.99300
C57         C  0.08171589  0.41051982  0.31757905     0.94200
O58         O  0.09058685  0.39743383  0.28465144    -0.81900
N59         N  0.21463860  0.37585233  0.18155506    -0.03100
C60         C  0.24768164  0.37788279  0.16926617    -0.00500
C61         C  0.25416638  0.35079609  0.14339277    -0.23300
C62         C  0.22440232  0.33245069  0.13894821    -0.23600
C63         C  0.20014506  0.34865541  0.16202872    -0.00600
H64         H  0.27631138  0.34788889  0.12431433     0.13200
H65         H  0.21977078  0.31276335  0.11669011     0.13300
N66         N  0.12418847  0.46947308  0.17005047    -0.03100
C67         C  0.12783955  0.50105073  0.15361344    -0.00500
C68         C  0.10574238  0.50475433  0.12154531    -0.23300
C69         C  0.09075148  0.47354067  0.11519762    -0.23600
C70         C  0.10294038  0.45196390  0.14475086    -0.00600
H71         H  0.10176296  0.02746206  0.10364677     0.13200
H72         H  0.07458780  0.46669322  0.09000533     0.13300
O73         O  0.31208687  0.37171728  0.06268741    -0.81400
C74         C  0.34242103  0.47924634  0.16334554     0.98000
O75         O  0.31363360  0.47784462  0.14556733    -0.70500
O76         O  0.33696778  0.46916162  0.07009082    -0.74100
Al77       Al  0.30292257  0.44606631  0.10231213     1.49000
C78         C  0.35521227  0.45331281  0.04455387     0.93200
O79         O  0.39689105  0.40094590  0.10398546    -0.80300
O80         O  0.32757302  0.35975983  0.17378932    -0.73900
Al81       Al  0.35319284  0.38742793  0.08617803     1.90100
O82         O  0.38776275  0.39718956  0.16823866    -0.72900
O83         O  0.29254221  0.41660879  0.18741801    -0.72800
O84         O  0.35451075  0.45277258  0.17896076    -0.78400
O85         O  0.26627973  0.42405413  0.13016217    -0.76600
O86         O  0.33194097  0.41359479  0.12041300    -1.12800
O87         O  0.28783408  0.42177944  0.05426695    -0.72000
C88         C  0.29353154  0.39156425  0.04213122     0.98700
C89         C  0.40826518  0.39923731  0.13915787     0.95100
Al90       Al  0.33937847  0.40744213  0.17310952     1.55600
O91         O  0.35832260  0.42133061  0.04650006    -0.76600
C92         C  0.26776086  0.40982360  0.16420816     0.99300
C93         C  0.34079134  0.33772594  0.15085613     0.94200
O94         O  0.35379869  0.34663855  0.11788688    -0.81900
N95         N  0.37546386  0.47080219  0.01483660    -0.03100
C96         C  0.37334274  0.50381025  0.33577885    -0.00500
C97         C  0.40037790  0.51036024  0.30982944    -0.23300
C98         C  0.41877077  0.48067151  0.30542969    -0.23600
C99         C  0.40264948  0.45638134  0.32861077    -0.00600
H100        H  0.40323003  0.03248853  0.29070365     0.13200
H101        H  0.43842950  0.47608727  0.28313823     0.13300
N102        N  0.28182433  0.38037698  0.00332041    -0.03100
C103        C  0.25028245  0.38411806  0.32017114    -0.00500
C104        C  0.24651166  0.36205151  0.28807626    -0.23300
C105        C  0.27766913  0.34703032  0.28172695    -0.23600
C106        C  0.29927315  0.35915095  0.31132080    -0.00600
H107        H  0.22379966  0.35808378  0.27019009     0.13200
H108        H  0.28445988  0.33088478  0.25651666     0.13300
O109        O  0.37957188  0.06826858  0.22939015    -0.81400
C110        C  0.27198244  0.09836472  0.32993990     0.98000
O111        O  0.27334867  0.06959451  0.31211755    -0.70500
O112        O  0.28213377  0.09296276  0.23668429    -0.74100
Al113      Al  0.30516268  0.05893061  0.26889595     1.49000
C114        C  0.29801535  0.11126557  0.21119076     0.93200
O115        O  0.35032810  0.15295364  0.27070341    -0.80300
O116        O  0.39142340  0.08363215  0.00711832    -0.73900
Al117      Al  0.36385721  0.10931755  0.25287371     1.90100
O118        O  0.35408115  0.14379086  0.00162067    -0.72900
O119        O  0.33455680  0.04851235  0.02068778    -0.72800
O120        O  0.29846087  0.11044420  0.01230073    -0.78400
O121        O  0.32711465  0.02228881  0.29673905    -0.76600
O122        O  0.33764538  0.08798587  0.28706216    -1.12800
O123        O  0.32950109  0.04390731  0.22087247    -0.72000
C124        C  0.35974643  0.04966061  0.20880586     0.98700
C125        C  0.35202372  0.16430545  0.30588669     0.95100
Al126      Al  0.34377646  0.09538149  0.00644309     1.55600
O127        O  0.33000485  0.11439281  0.21313916    -0.76600
C128        C  0.34135989  0.02377446  0.33078043     0.99300
C129        C  0.41348729  0.09691060  0.31756469     0.94200
O130        O  0.40461645  0.10999435  0.28463588    -0.81900
N131        N  0.28056013  0.13158158  0.18154922    -0.03100
C132        C  0.24751667  0.12954968  0.16926325    -0.00500
C133        C  0.24103096  0.15663351  0.14338595    -0.23300
C134        C  0.27079476  0.17497831  0.13893569    -0.23600
C135        C  0.29505283  0.15877628  0.16201715    -0.00600
H136        H  0.21888481  0.15953888  0.12430892     0.13200
H137        H  0.27542563  0.19466348  0.11667424     0.13300
N138        N  0.37100724  0.03795918  0.17003660    -0.03100
C139        C  0.36735580  0.00638196  0.15359932    -0.00500
C140        C  0.38945275  0.00267834  0.12153066    -0.23300
C141        C  0.40444398  0.03389180  0.11518285    -0.23600
C142        C  0.39225560  0.05546821  0.14473690    -0.00600
H143        H  0.39343345  0.47997050  0.10363279     0.13200
H144        H  0.42060783  0.04073915  0.08999049     0.13300
O145        O  0.36562889  0.18916385  0.06272321    -0.81400
C146        C  0.47321707  0.15906644  0.16327316     0.98000
O147        O  0.47185203  0.18783623  0.14544962    -0.70500
O148        O  0.46306675  0.16446711  0.07001770    -0.74100
Al149      Al  0.44003853  0.19850053  0.10222831     1.49000
C150        C  0.44718489  0.14616495  0.04452423     0.93200
O151        O  0.39487250  0.10447892  0.10403683    -0.80300
O152        O  0.35377627  0.17380140  0.17378461    -0.73900
Al153      Al  0.38134313  0.14811473  0.08620705     1.90100
O154        O  0.39111825  0.11364194  0.16828724    -0.72900
O155        O  0.41064348  0.20892064  0.18735357    -0.72800
O156        O  0.44673806  0.14698816  0.17896781    -0.78400
O157        O  0.41808774  0.23514346  0.13007108    -0.76600
O158        O  0.40755498  0.16944634  0.12039515    -1.12800
O159        O  0.41570042  0.21352406  0.05420465    -0.72000
C160        C  0.38545489  0.20777134  0.04213846     0.98700
C161        C  0.39317676  0.09312729  0.13922023     0.95100
Al162      Al  0.40142312  0.16205139  0.17310947     1.55600
O163        O  0.41519519  0.14303928  0.04647196    -0.76600
C164        C  0.40384208  0.23365863  0.16411266     0.99300
C165        C  0.33171261  0.16052181  0.15089862     0.94200
O166        O  0.34058373  0.14743786  0.11796989    -0.81900
N167        N  0.46463999  0.12584855  0.01488292    -0.03100
C168        C  0.49768341  0.12788075  0.33593027    -0.00500
C169        C  0.50416914  0.10079827  0.31005110    -0.23300
C170        C  0.47440501  0.08245422  0.30559971    -0.23600
C171        C  0.45014697  0.09865530  0.32868253    -0.00600
H172        H  0.02631539  0.09789349  0.29097332     0.13200
H173        H  0.46977424  0.06277093  0.28333683     0.13300
N174        N  0.37419439  0.21947317  0.00336935    -0.03100
C175        C  0.37784596  0.25105069  0.32026548    -0.00500
C176        C  0.35574931  0.25475454  0.28819703    -0.23300
C177        C  0.34075826  0.22354111  0.28184904    -0.23600
C178        C  0.35294626  0.20196453  0.31140299    -0.00600
H179        H  0.35176901  0.27746233  0.27029893     0.13200
H180        H  0.32459461  0.21669409  0.25665722     0.13300
O181        O  0.06208194  0.12171837  0.22936123    -0.81400
C182        C  0.09242333  0.22924444  0.33002323     0.98000
O183        O  0.06363628  0.22784468  0.31224395    -0.70500
O184        O  0.08697063  0.21916079  0.23676873    -0.74100
Al185      Al  0.05292369  0.19606747  0.26898775     1.49000
C186        C  0.10521357  0.20331169  0.21123091     0.93200
O187        O  0.14688804  0.15093854  0.27066034    -0.80300
O188        O  0.07757067  0.10975713  0.00713227    -0.73900
Al189      Al  0.10318922  0.13742508  0.25285271     1.90100
O190        O  0.13776066  0.14718555  0.00158048    -0.72900
O191        O  0.04254117  0.16660709  0.02075808    -0.72800
O192        O  0.10451141  0.20276940  0.01230367    -0.78400
O193        O  0.01627931  0.17405801  0.29683595    -0.76600
O194        O  0.08193985  0.16359318  0.28708834    -1.12800
O195        O  0.03783359  0.17178254  0.22094044    -0.72000
C196        C  0.04352887  0.14156689  0.20880427     0.98700
C197        C  0.15826250  0.14923110  0.30583257     0.95100
Al198      Al  0.08937713  0.15743938  0.00645144     1.55600
O199        O  0.10832219  0.17132910  0.21317581    -0.76600
C200        C  0.01776086  0.15982323  0.33087937     0.99300
C201        C  0.09078700  0.08772255  0.31753176     0.94200
O202        O  0.10379190  0.09663459  0.28456079    -0.81900
N203        N  0.12546439  0.22080146  0.18151347    -0.01500
C204        C  0.12334205  0.25380994  0.16912357    -0.00500
C205        C  0.15037617  0.26036084  0.14317312    -0.23300
C206        C  0.16876936  0.23067254  0.13877124    -0.23600
C207        C  0.15264952  0.20638144  0.16195237    -0.00600
H208        H  0.15322689  0.28248971  0.12404743     0.13200
H209        H  0.18842747  0.22608913  0.11647839     0.13300
N210        N  0.03182318  0.13038043  0.16999207    -0.03100
C211        C  0.00028166  0.13411931  0.15350715    -0.00500
C212        C  0.99651272  0.11205083  0.12141367    -0.23300
C213        C  0.02767037  0.09702941  0.11506800    -0.23600
C214        C  0.04927284  0.10915242  0.14466187    -0.00600
H215        H  0.47380209  0.10808238  0.10352558     0.13200
H216        H  0.03446254  0.08088213  0.08985943     0.13300
O217        O  0.12957331  0.31826928  0.06273625    -0.81400
C218        C  0.02198138  0.34836647  0.16327646     0.98000
O219        O  0.02334735  0.31959479  0.14545724    -0.70500
O220        O  0.03213391  0.34295844  0.07002362    -0.74100
Al221      Al  0.05516252  0.30892833  0.10223879     1.49000
C222        C  0.04801619  0.36126168  0.04453139     0.93200
O223        O  0.10032351  0.40295310  0.10404984    -0.80300
O224        O  0.14142140  0.33363033  0.17379745    -0.73900
Al225      Al  0.11385596  0.35931752  0.08621955     1.90100
O226        O  0.10407947  0.39378962  0.16830002    -0.72900
O227        O  0.08455407  0.29851098  0.18736598    -0.72800
O228        O  0.04845842  0.36044377  0.17897637    -0.78400
O229        O  0.07711291  0.27228695  0.13008443    -0.76600
O230        O  0.08764423  0.33798436  0.12040661    -1.12800
O231        O  0.07950410  0.29390400  0.05421815    -0.72000
C232        C  0.10974942  0.29965914  0.04215232     0.98700
C233        C  0.10201975  0.41430462  0.13923341     0.95100
Al234      Al  0.09377423  0.34538011  0.17312135     1.55600
O235        O  0.08000534  0.36439076  0.04648326    -0.76600
C236        C  0.09135809  0.27377316  0.16412576     0.99300
C237        C  0.16348520  0.34691053  0.15091139     0.94200
O238        O  0.15461421  0.35999597  0.11798353    -0.81900
N239        N  0.03056225  0.38157844  0.01488926    -0.03100
C240        C  0.99751951  0.37954876  0.33593341    -0.00500
C241        C  0.99103551  0.40663635  0.31006096    -0.23300
C242        C  0.02079968  0.42498166  0.30561715    -0.23600
C243        C  0.04505620  0.40877571  0.32869696    -0.00600
H244        H  0.46889128  0.40954393  0.29098266     0.13200
H245        H  0.02543221  0.44466964  0.28335950     0.13300
N246        N  0.12101179  0.28795694  0.00338409    -0.03100
C247        C  0.11735982  0.25637979  0.32027964    -0.00500
C248        C  0.13945712  0.25267623  0.28821139    -0.23300
C249        C  0.15444913  0.28388966  0.28186455    -0.23600
C250        C  0.14226048  0.30546621  0.31141823    -0.00600
H251        H  0.14343647  0.22996928  0.27031209     0.13200
H252        H  0.17061296  0.29073689  0.25667286     0.13300
O253        O  0.43311442  0.38571641  0.22935286    -0.81400
C254        C  0.40278035  0.27818649  0.33001161     0.98000
O255        O  0.43156773  0.27958854  0.31223274    -0.70500
O256        O  0.40823381  0.28827215  0.23675641    -0.74100
Al257      Al  0.44227868  0.31136724  0.26897766     1.49000
C258        C  0.38998928  0.30412098  0.21121996     0.93200
O259        O  0.34831047  0.35648897  0.27065338    -0.80300
O260        O  0.41762835  0.39767313  0.00712321    -0.73900
Al261      Al  0.39200859  0.37000619  0.25284484     1.90100
O262        O  0.35743869  0.36024354  0.00157297    -0.72900
O263        O  0.45265845  0.34082305  0.02075057    -0.72800
O264        O  0.39069005  0.30466017  0.01229320    -0.78400
O265        O  0.47892129  0.33337920  0.29682748    -0.76600
O266        O  0.41326013  0.34383865  0.28707928    -1.12800
O267        O  0.45736719  0.33565422  0.22093252    -0.72000
C268        C  0.45166944  0.36586920  0.20879639     0.98700
C269        C  0.33693635  0.35819636  0.30582605     0.95100
Al270      Al  0.40582256  0.34999065  0.00644269     1.55600
O271        O  0.38687796  0.33610315  0.21316727    -0.76600
C272        C  0.47744013  0.34760849  0.33087416     0.99300
C273        C  0.40441098  0.41970763  0.31752346     0.94200
O274        O  0.39140391  0.41079557  0.28455406    -0.81900
N275        N  0.36973857  0.28663171  0.18150200    -0.03100
C276        C  0.37185975  0.25362369  0.16911045    -0.00500
C277        C  0.34482510  0.24707376  0.14316102    -0.23300
C278        C  0.32643235  0.27676232  0.13876119    -0.23600
C279        C  0.34255305  0.30105231  0.16194271    -0.00600
H280        H  0.34197327  0.22494508  0.12403533     0.13200
H281        H  0.30677347  0.28134651  0.11646985     0.13300
N282        N  0.46337690  0.37705611  0.16998536    -0.03100
C283        C  0.49491895  0.37331423  0.15350292    -0.00500
C284        C  0.49869037  0.39538012  0.12140717    -0.23300
C285        C  0.46753288  0.41040114  0.11505701    -0.23600
C286        C  0.44592840  0.39828156  0.14465147    -0.00600
H287        H  0.02140253  0.39934766  0.10352129     0.13200
H288        H  0.46074251  0.42654627  0.08984590     0.13300
O289        O  0.18311589  0.13571221  0.39602620    -0.81400
C290        C  0.15277615  0.02818581  0.49669014     0.98000
O291        O  0.18156305  0.02958588  0.47891000    -0.70500
O292        O  0.15822851  0.03826981  0.40343499    -0.74100
Al293      Al  0.19227516  0.06136349  0.43565357     1.49000
C294        C  0.13998508  0.05411874  0.37789776     0.93200
O295        O  0.09831026  0.10649215  0.43732864    -0.80300
O296        O  0.16762746  0.14767316  0.50713195    -0.73900
Al297      Al  0.14200896  0.12000540  0.41951949     1.90100
O298        O  0.10743795  0.11024359  0.50158207    -0.72900
O299        O  0.20265805  0.09082396  0.52075739    -0.72800
O300        O  0.14068822  0.05466072  0.51230467    -0.78400
O301        O  0.22891952  0.08337360  0.46350120    -0.76600
O302        O  0.16325873  0.09383730  0.45375470    -1.12800
O303        O  0.20736489  0.08564839  0.38760608    -0.72000
C304        C  0.20166928  0.11586370  0.37546937     0.98700
C305        C  0.08693596  0.10819821  0.47250131     0.95100
Al306      Al  0.15582175  0.09999080  0.50645163     1.55600
O307        O  0.13687544  0.08610123  0.37984326    -0.76600
C308        C  0.22743853  0.09760762  0.49754506     0.99300
C309        C  0.15441154  0.16970775  0.48419801     0.94200
O310        O  0.14140668  0.16079575  0.45122736    -0.81900
N311        N  0.11973489  0.03662905  0.34818011    -0.03100
C312        C  0.12185756  0.00362076  0.66912315    -0.00500
C313        C  0.09482352  0.99706974  0.64317327    -0.23300
C314        C  0.07642997  0.02675777  0.63877201    -0.23600
C315        C  0.09254951  0.05104892  0.66195291    -0.00600
H316        H  0.09197300  0.47494074  0.62404748     0.13200
H317        H  0.05677160  0.03134108  0.61647972     0.13300
N318        N  0.21337545  0.12704967  0.33665687    -0.03100
C319        C  0.24491729  0.12331064  0.65350549    -0.00500
C320        C  0.24868619  0.14537798  0.62141089    -0.23300
C321        C  0.21752822  0.16039815  0.61506398    -0.23600
C322        C  0.19592564  0.14827605  0.64465871    -0.00600
H323        H  0.27139710  0.14934682  0.60352303     0.13200
H324        H  0.21073624  0.17654404  0.58985469     0.13300
O325        O  0.11562704  0.43916006  0.56273612    -0.81400
C326        C  0.22321948  0.40906556  0.66327675     0.98000
O327        O  0.22185317  0.43783652  0.64545593    -0.70500
O328        O  0.21306661  0.41447171  0.57002302    -0.74100
Al329      Al  0.19003768  0.44850205  0.60223788     1.49000
C330        C  0.19718454  0.39616835  0.54453104     0.93200
O331        O  0.14487763  0.35447693  0.60405038    -0.80300
O332        O  0.10377959  0.42379997  0.34046449    -0.73900
Al333      Al  0.13134479  0.39811219  0.58622001     1.90100
O334        O  0.14112208  0.36364070  0.33496728    -0.72900
O335        O  0.16064581  0.45892002  0.35403208    -0.72800
O336        O  0.19674229  0.39698784  0.34564315    -0.78400
O337        O  0.16808667  0.48514355  0.63008324    -0.76600
O338        O  0.15755635  0.41944585  0.62040654    -1.12800
O339        O  0.16569610  0.46352577  0.55421737    -0.72000
C340        C  0.13545086  0.45777046  0.54215191     0.98700
C341        C  0.14318155  0.34312552  0.63923406     0.95100
Al342      Al  0.15142649  0.41205055  0.33978804     1.55600
O343        O  0.16519545  0.39303893  0.54648328    -0.76600
C344        C  0.15384168  0.48365772  0.66412496     0.99300
C345        C  0.08171589  0.41051994  0.65091245     0.94200
O346        O  0.09058686  0.39743374  0.61798495    -0.81900
N347        N  0.21463870  0.37585229  0.51488845    -0.03100
C348        C  0.24768175  0.37788280  0.50259939    -0.00500
C349        C  0.25416635  0.35079604  0.47672596    -0.23300
C350        C  0.22440231  0.33245055  0.47228147    -0.23600
C351        C  0.20014513  0.34865537  0.49536207    -0.00600
H352        H  0.27631141  0.34788886  0.45764716     0.13200
H353        H  0.21977056  0.31276311  0.45002355     0.13300
N354        N  0.12418835  0.46947315  0.50338394    -0.03100
C355        C  0.12783957  0.50105076  0.48694681    -0.00500
C356        C  0.10574243  0.50475438  0.45487872    -0.23300
C357        C  0.09075153  0.47354071  0.44853108    -0.23600
C358        C  0.10294043  0.45196391  0.47808428    -0.00600
H359        H  0.10176259  0.02746215  0.43697985     0.13200
H360        H  0.07458771  0.46669325  0.42333933     0.13300
O361        O  0.31208685  0.37171732  0.39602076    -0.81400
C362        C  0.34242105  0.47924635  0.49667881     0.98000
O363        O  0.31363361  0.47784471  0.47890057    -0.70500
O364        O  0.33696770  0.46916174  0.40342417    -0.74100
Al365      Al  0.30292255  0.44606636  0.43564543     1.49000
C366        C  0.35521223  0.45331294  0.37788728     0.93200
O367        O  0.39689102  0.40094590  0.43731897    -0.80300
O368        O  0.32757299  0.35975984  0.50712277    -0.73900
Al369      Al  0.35319285  0.38742794  0.41951133     1.90100
O370        O  0.38776276  0.39718957  0.50157205    -0.72900
O371        O  0.29254220  0.41660879  0.52075136    -0.72800
O372        O  0.35451073  0.45277255  0.51229403    -0.78400
O373        O  0.26627968  0.42405416  0.46349544    -0.76600
O374        O  0.33194107  0.41359484  0.45374625    -1.12800
O375        O  0.28783407  0.42177947  0.38760021    -0.72000
C376        C  0.29353155  0.39156429  0.37546454     0.98700
C377        C  0.40826520  0.39923731  0.47249133     0.95100
Al378      Al  0.33937847  0.40744213  0.50644286     1.55600
O379        O  0.35832263  0.42133070  0.37983336    -0.76600
C380        C  0.26776089  0.40982359  0.49754143     0.99300
C381        C  0.34079129  0.33772598  0.48418951     0.94200
O382        O  0.35379867  0.34663856  0.45122026    -0.81900
N383        N  0.37546376  0.47080217  0.34816995    -0.03100
C384        C  0.37334270  0.50381032  0.66911226    -0.00500
C385        C  0.40037785  0.51036021  0.64316294    -0.23300
C386        C  0.41877075  0.48067158  0.63876310    -0.23600
C387        C  0.40264957  0.45638142  0.66194427    -0.00600
H388        H  0.40323000  0.03248905  0.62403679     0.13200
H389        H  0.43842954  0.47608754  0.61647165     0.13300
N390        N  0.28182435  0.38037700  0.33665381    -0.03100
C391        C  0.25028246  0.38411812  0.65350438    -0.00500
C392        C  0.24651161  0.36205133  0.62140953    -0.23300
C393        C  0.27766918  0.34703021  0.61506011    -0.23600
C394        C  0.29927317  0.35915100  0.64465392    -0.00600
H395        H  0.22379956  0.35808356  0.60352337     0.13200
H396        H  0.28446023  0.33088462  0.58984975     0.13300
O397        O  0.37957199  0.06826858  0.56272346    -0.81400
C398        C  0.27198245  0.09836470  0.66327304     0.98000
O399        O  0.27334857  0.06959448  0.64545074    -0.70500
O400        O  0.28213385  0.09296275  0.57001747    -0.74100
Al401      Al  0.30516271  0.05893054  0.60222920     1.49000
C402        C  0.29801549  0.11126560  0.54452404     0.93200
O403        O  0.35032800  0.15295360  0.60403670    -0.80300
O404        O  0.39142340  0.08363214  0.34045171    -0.73900
Al405      Al  0.36385721  0.10931759  0.58620704     1.90100
O406        O  0.35408117  0.14379095  0.33495396    -0.72900
O407        O  0.33455684  0.04851223  0.35402103    -0.72800
O408        O  0.29846088  0.11044418  0.34563423    -0.78400
O409        O  0.32711466  0.02228870  0.63007225    -0.76600
O410        O  0.33764535  0.08798589  0.62039556    -1.12800
O411        O  0.32950122  0.04390729  0.55420570    -0.72000
C412        C  0.35974658  0.04966058  0.54213920     0.98700
C413        C  0.35202379  0.16430534  0.63922002     0.95100
Al414      Al  0.34377646  0.09538151  0.33977641     1.55600
O415        O  0.33000497  0.11439277  0.54647249    -0.76600
C416        C  0.34135990  0.02377451  0.66411369     0.99300
C417        C  0.41348724  0.09691068  0.65089806     0.94200
O418        O  0.40461637  0.10999430  0.61796918    -0.81900
N419        N  0.28056017  0.13158150  0.51488252    -0.03100
C420        C  0.24751669  0.12954955  0.50259658    -0.00500
C421        C  0.24103082  0.15663329  0.47671927    -0.23300
C422        C  0.27079457  0.17497828  0.47226921    -0.23600
C423        C  0.29505278  0.15877621  0.49535048    -0.00600
H424        H  0.21888476  0.15953876  0.45764237     0.13200
H425        H  0.27542530  0.19466302  0.45000774     0.13300
N426        N  0.37100723  0.03795918  0.50336999    -0.03100
C427        C  0.36735581  0.00638195  0.48693280    -0.00500
C428        C  0.38945271  0.00267816  0.45486421    -0.23300
C429        C  0.40444385  0.03389174  0.44851639    -0.23600
C430        C  0.39225555  0.05546821  0.47807040    -0.00600
H431        H  0.39343339  0.47997045  0.43696601     0.13200
H432        H  0.42060764  0.04073902  0.42332445     0.13300
O433        O  0.36562893  0.18916389  0.39605654    -0.81400
C434        C  0.47321708  0.15906640  0.49660650     0.98000
O435        O  0.47185206  0.18783614  0.47878289    -0.70500
O436        O  0.46306668  0.16446712  0.40335096    -0.74100
Al437      Al  0.44003854  0.19850054  0.43556167     1.49000
C438        C  0.44718483  0.14616496  0.37785751     0.93200
O439        O  0.39487247  0.10447888  0.43737007    -0.80300
O440        O  0.35377622  0.17380130  0.50711788    -0.73900
Al441      Al  0.38134316  0.14811477  0.41954033     1.90100
O442        O  0.39111823  0.11364195  0.50162063    -0.72900
O443        O  0.41064348  0.20892049  0.52068690    -0.72800
O444        O  0.44673803  0.14698802  0.51230104    -0.78400
O445        O  0.41808775  0.23514337  0.46340451    -0.76600
O446        O  0.40755495  0.16944645  0.45372852    -1.12800
O447        O  0.41570048  0.21352406  0.38753795    -0.72000
C448        C  0.38545490  0.20777157  0.37547190     0.98700
C449        C  0.39317673  0.09312729  0.47255356     0.95100
Al450      Al  0.40142309  0.16205137  0.50644281     1.55600
O451        O  0.41519522  0.14303931  0.37980530    -0.76600
C452        C  0.40384214  0.23365858  0.49744609     0.99300
C453        C  0.33171256  0.16052187  0.48423183     0.94200
O454        O  0.34058379  0.14743789  0.45130320    -0.81900
N455        N  0.46463994  0.12584861  0.34821625    -0.03100
C456        C  0.49768327  0.12788080  0.66926355    -0.00500
C457        C  0.50416898  0.10079810  0.64338451    -0.23300
C458        C  0.47440483  0.08245414  0.63893304    -0.23600
C459        C  0.45014692  0.09865523  0.66201595    -0.00600
H460        H  0.02631531  0.09789342  0.62430728     0.13200
H461        H  0.46977404  0.06277034  0.61667012     0.13300
N462        N  0.37419444  0.21947330  0.33670266    -0.03100
C463        C  0.37784576  0.25105065  0.65359872    -0.00500
C464        C  0.35574910  0.25475438  0.62153027    -0.23300
C465        C  0.34075813  0.22354092  0.61518238    -0.23600
C466        C  0.35294616  0.20196441  0.64473617    -0.00600
H467        H  0.35176855  0.27746226  0.60363270     0.13200
H468        H  0.32459408  0.21669372  0.58999034     0.13300
O469        O  0.06208196  0.12171837  0.56269459    -0.81400
C470        C  0.09242340  0.22924446  0.66335649     0.98000
O471        O  0.06363629  0.22784483  0.64557736    -0.70500
O472        O  0.08697057  0.21916076  0.57010214    -0.74100
Al473      Al  0.05292368  0.19606752  0.60232105     1.49000
C474        C  0.10521348  0.20331167  0.54456427     0.93200
O475        O  0.14688797  0.15093851  0.60399376    -0.80300
O476        O  0.07757067  0.10975710  0.34046566    -0.73900
Al477      Al  0.10318920  0.13742506  0.58618604     1.90100
O478        O  0.13776063  0.14718552  0.33491388    -0.72900
O479        O  0.04254114  0.16660701  0.35409150    -0.72800
O480        O  0.10451134  0.20276928  0.34563702    -0.78400
O481        O  0.01627933  0.17405805  0.63016931    -0.76600
O482        O  0.08193985  0.16359323  0.62042163    -1.12800
O483        O  0.03783359  0.17178254  0.55427373    -0.72000
C484        C  0.04352880  0.14156683  0.54213766     0.98700
C485        C  0.15826250  0.14923121  0.63916602     0.95100
Al486      Al  0.08937715  0.15743936  0.33978485     1.55600
O487        O  0.10832227  0.17132905  0.54650911    -0.76600
C488        C  0.01776087  0.15982323  0.66421266     0.99300
C489        C  0.09078711  0.08772259  0.65086507     0.94200
O490        O  0.10379189  0.09663465  0.61789411    -0.81900
N491        N  0.12546424  0.22080146  0.51484681    -0.01500
C492        C  0.12334200  0.25380993  0.50245687    -0.00500
C493        C  0.15037616  0.26036080  0.47650657    -0.23300
C494        C  0.16876931  0.23067253  0.47210476    -0.23600
C495        C  0.15264939  0.20638145  0.49528585    -0.00600
H496        H  0.15322714  0.28248970  0.45738079     0.13200
H497        H  0.18842742  0.22608928  0.44981233     0.13300
N498        N  0.03182314  0.13038038  0.50332541    -0.03100
C499        C  0.00028167  0.13411941  0.48684031    -0.00500
C500        C  0.99651267  0.11205080  0.45474691    -0.23300
C501        C  0.02767030  0.09702938  0.44840120    -0.23600
C502        C  0.04927284  0.10915240  0.47799509    -0.00600
H503        H  0.47380208  0.10808271  0.43685836     0.13200
H504        H  0.03446264  0.08088248  0.42319217     0.13300
O505        O  0.12957324  0.31826940  0.39606960    -0.81400
C506        C  0.02198136  0.34836641  0.49660986     0.98000
O507        O  0.02334733  0.31959474  0.47879066    -0.70500
O508        O  0.03213388  0.34295848  0.40335700    -0.74100
Al509      Al  0.05516250  0.30892833  0.43557214     1.49000
C510        C  0.04801619  0.36126171  0.37786470     0.93200
O511        O  0.10032341  0.40295310  0.43738314    -0.80300
O512        O  0.14142138  0.33363031  0.50713075    -0.73900
Al513      Al  0.11385595  0.35931757  0.41955294     1.90100
O514        O  0.10407946  0.39378957  0.50163341    -0.72900
O515        O  0.08455411  0.29851082  0.52069930    -0.72800
O516        O  0.04845838  0.36044364  0.51230983    -0.78400
O517        O  0.07711297  0.27228694  0.46341776    -0.76600
O518        O  0.08764423  0.33798435  0.45373994    -1.12800
O519        O  0.07950404  0.29390401  0.38755149    -0.72000
C520        C  0.10974939  0.29965916  0.37548571     0.98700
C521        C  0.10201970  0.41430459  0.47256675     0.95100
Al522      Al  0.09377422  0.34538004  0.50645469     1.55600
O523        O  0.08000532  0.36439082  0.37981660    -0.76600
C524        C  0.09135815  0.27377310  0.49745905     0.99300
C525        C  0.16348519  0.34691045  0.48424470     0.94200
O526        O  0.15461413  0.35999598  0.45131694    -0.81900
N527        N  0.03056228  0.38157848  0.34822262    -0.03100
C528        C  0.99751940  0.37954873  0.66926680    -0.00500
C529        C  0.99103545  0.40663621  0.64339428    -0.23300
C530        C  0.02079968  0.42498156  0.63895068    -0.23600
C531        C  0.04505620  0.40877562  0.66203054    -0.00600
H532        H  0.46889129  0.40954386  0.62431526     0.13200
H533        H  0.02543239  0.44466913  0.61669357     0.13300
N534        N  0.12101178  0.28795695  0.33671742    -0.03100
C535        C  0.11735990  0.25637968  0.65361278    -0.00500
C536        C  0.13945724  0.25267618  0.62154453    -0.23300
C537        C  0.15444920  0.28388957  0.61519765    -0.23600
C538        C  0.14226054  0.30546612  0.64475139    -0.00600
H539        H  0.14343667  0.22996866  0.60364539     0.13200
H540        H  0.17061301  0.29073715  0.59000550     0.13300
O541        O  0.43311439  0.38571645  0.56268624    -0.81400
C542        C  0.40278019  0.27818650  0.66334467     0.98000
O543        O  0.43156771  0.27958846  0.64556604    -0.70500
O544        O  0.40823387  0.28827208  0.57008971    -0.74100
Al545      Al  0.44227869  0.31136727  0.60231101     1.49000
C546        C  0.38998928  0.30412095  0.54455322     0.93200
O547        O  0.34831050  0.35648897  0.60398670    -0.80300
O548        O  0.41762836  0.39767311  0.34045654    -0.73900
Al549      Al  0.39200858  0.37000621  0.58617817     1.90100
O550        O  0.35743871  0.36024351  0.33490638    -0.72900
O551        O  0.45265849  0.34082308  0.35408394    -0.72800
O552        O  0.39069008  0.30466023  0.34562657    -0.78400
O553        O  0.47892124  0.33337918  0.63016082    -0.76600
O554        O  0.41326015  0.34383875  0.62041253    -1.12800
O555        O  0.45736723  0.33565427  0.55426591    -0.72000
C556        C  0.45166944  0.36586922  0.54212980     0.98700
C557        C  0.33693636  0.35819633  0.63915935     0.95100
Al558      Al  0.40582258  0.34999064  0.33977611     1.55600
O559        O  0.38687798  0.33610314  0.54650046    -0.76600
C560        C  0.47744008  0.34760847  0.66420751     0.99300
C561        C  0.40441094  0.41970769  0.65085692     0.94200
O562        O  0.39140392  0.41079554  0.61788750    -0.81900
N563        N  0.36973846  0.28663166  0.51483536    -0.03100
C564        C  0.37185970  0.25362366  0.50244374    -0.00500
C565        C  0.34482504  0.24707379  0.47649426    -0.23300
C566        C  0.32643240  0.27676250  0.47209449    -0.23600
C567        C  0.34255300  0.30105239  0.49527603    -0.00600
H568        H  0.34197331  0.22494517  0.45736847     0.13200
H569        H  0.30677363  0.28134712  0.44980298     0.13300
N570        N  0.46337688  0.37705602  0.50331883    -0.03100
C571        C  0.49491896  0.37331413  0.48683639    -0.00500
C572        C  0.49869044  0.39537989  0.45474074    -0.23300
C573        C  0.46753296  0.41040100  0.44839068    -0.23600
C574        C  0.44592844  0.39828141  0.47798506    -0.00600
H575        H  0.02140264  0.39934751  0.43685478     0.13200
H576        H  0.46074269  0.42654568  0.42317993     0.13300
O577        O  0.18311583  0.13571219  0.72935957    -0.81400
C578        C  0.15277614  0.02818586  0.83002356     0.98000
O579        O  0.18156306  0.02958590  0.81224338    -0.70500
O580        O  0.15822854  0.03826986  0.73676833    -0.74100
Al581      Al  0.19227519  0.06136350  0.76898695     1.49000
C582        C  0.13998503  0.05411883  0.71123112     0.93200
O583        O  0.09831019  0.10649203  0.77066207    -0.80300
O584        O  0.16762750  0.14767319  0.84046528    -0.73900
Al585      Al  0.14200895  0.12000544  0.75285292     1.90100
O586        O  0.10743799  0.11024357  0.83491532    -0.72900
O587        O  0.20265799  0.09082400  0.85409080    -0.72800
O588        O  0.14068813  0.05466079  0.84563803    -0.78400
O589        O  0.22891948  0.08337360  0.79683461    -0.76600
O590        O  0.16325874  0.09383730  0.78708813    -1.12800
O591        O  0.20736498  0.08564841  0.72093949    -0.72000
C592        C  0.20166929  0.11586367  0.70880275     0.98700
C593        C  0.08693594  0.10819819  0.80583467     0.95100
Al594      Al  0.15582170  0.09999080  0.83978497     1.55600
O595        O  0.13687552  0.08610131  0.71317652    -0.76600
C596        C  0.22743852  0.09760758  0.83087849     0.99300
C597        C  0.15441143  0.16970779  0.81753145     0.94200
O598        O  0.14140674  0.16079590  0.78456071    -0.81900
N599        N  0.11973482  0.03662908  0.68151348    -0.03100
C600        C  0.12185760  0.00362072  0.00245653    -0.00500
C601        C  0.09482356  0.99706963  0.97650676    -0.23300
C602        C  0.07643001  0.02675771  0.97210549    -0.23600
C603        C  0.09254951  0.05104892  0.99528635    -0.00600
H604        H  0.09197288  0.47494094  0.95738074     0.13200
H605        H  0.05677165  0.03134078  0.94981360     0.13300
N606        N  0.21337540  0.12704951  0.66999023    -0.03100
C607        C  0.24491719  0.12331063  0.98683877    -0.00500
C608        C  0.24868619  0.14537807  0.95474418    -0.23300
C609        C  0.21752829  0.16039825  0.94839714    -0.23600
C610        C  0.19592564  0.14827608  0.97799175    -0.00600
H611        H  0.27139714  0.14934662  0.93685643     0.13200
H612        H  0.21073635  0.17654423  0.92318735     0.13300
O613        O  0.11562705  0.43916009  0.89606952    -0.81400
C614        C  0.22321943  0.40906550  0.99660996     0.98000
O615        O  0.22185316  0.43783657  0.97878926    -0.70500
O616        O  0.21306661  0.41447175  0.90335632    -0.74100
Al617      Al  0.19003770  0.44850208  0.93557113     1.49000
C618        C  0.19718454  0.39616840  0.87786437     0.93200
O619        O  0.14487764  0.35447690  0.93738379    -0.80300
O620        O  0.10377962  0.42380002  0.67379794    -0.73900
Al621      Al  0.13134479  0.39811220  0.91955331     1.90100
O622        O  0.14112208  0.36364065  0.66830067    -0.72900
O623        O  0.16064586  0.45892010  0.68736533    -0.72800
O624        O  0.19674232  0.39698789  0.67897647    -0.78400
O625        O  0.16808668  0.48514360  0.96341658    -0.76600
O626        O  0.15755639  0.41944584  0.95373973    -1.12800
O627        O  0.16569610  0.46352578  0.88755078    -0.72000
C628        C  0.13545086  0.45777048  0.87548532     0.98700
C629        C  0.14318153  0.34312550  0.97256745     0.95100
Al630      Al  0.15142649  0.41205057  0.67312146     1.55600
O631        O  0.16519543  0.39303904  0.87981654    -0.76600
C632        C  0.15384166  0.48365768  0.99745835     0.99300
C633        C  0.08171590  0.41051991  0.98424574     0.94200
O634        O  0.09058686  0.39743374  0.95131818    -0.81900
N635        N  0.21463873  0.37585230  0.84822178    -0.03100
C636        C  0.24768180  0.37788279  0.83593273    -0.00500
C637        C  0.25416645  0.35079603  0.81005927    -0.23300
C638        C  0.22440237  0.33245063  0.80561478    -0.23600
C639        C  0.20014516  0.34865546  0.82869534    -0.00600
H640        H  0.27631149  0.34788885  0.79098040     0.13200
H641        H  0.21977063  0.31276342  0.78335670     0.13300
N642        N  0.12418838  0.46947306  0.83671725    -0.03100
C643        C  0.12783966  0.50105057  0.82028016    -0.00500
C644        C  0.10574241  0.50475415  0.78821203    -0.23300
C645        C  0.09075150  0.47354047  0.78186430    -0.23600
C646        C  0.10294038  0.45196379  0.81141753    -0.00600
H647        H  0.10176266  0.02746153  0.77031359     0.13200
H648        H  0.07458787  0.46669312  0.75667190     0.13300
O649        O  0.31208694  0.37171728  0.72935399    -0.81400
C650        C  0.34242104  0.47924628  0.83001222     0.98000
O651        O  0.31363363  0.47784470  0.81223398    -0.70500
O652        O  0.33696776  0.46916170  0.73675749    -0.74100
Al653      Al  0.30292255  0.44606635  0.76897878     1.49000
C654        C  0.35521217  0.45331292  0.71122056     0.93200
O655        O  0.39689093  0.40094594  0.77065216    -0.80300
O656        O  0.32757294  0.35975973  0.84045606    -0.73900
Al657      Al  0.35319283  0.38742795  0.75284467     1.90100
O658        O  0.38776273  0.39718937  0.83490534    -0.72900
O659        O  0.29254221  0.41660876  0.85408458    -0.72800
O660        O  0.35451075  0.45277243  0.84562735    -0.78400
O661        O  0.26627975  0.42405415  0.79682881    -0.76600
O662        O  0.33194104  0.41359486  0.78707962    -1.12800
O663        O  0.28783404  0.42177950  0.72093360    -0.72000
C664        C  0.29353157  0.39156429  0.70879784     0.98700
C665        C  0.40826515  0.39923728  0.80582456     0.95100
Al666      Al  0.33937843  0.40744206  0.83977616     1.55600
O667        O  0.35832256  0.42133069  0.71316683    -0.76600
C668        C  0.26776083  0.40982365  0.83087480     0.99300
C669        C  0.34079128  0.33772590  0.81752276     0.94200
O670        O  0.35379870  0.34663853  0.78455348    -0.81900
N671        N  0.37546375  0.47080221  0.68150330    -0.03100
C672        C  0.37334279  0.50381030  0.00244548    -0.00500
C673        C  0.40037782  0.51036029  0.97649610    -0.23300
C674        C  0.41877069  0.48067165  0.97209631    -0.23600
C675        C  0.40264955  0.45638137  0.99527738    -0.00600
H676        H  0.40322988  0.03248902  0.95737003     0.13200
H677        H  0.43842945  0.47608743  0.94980483     0.13300
N678        N  0.28182434  0.38037701  0.66998707    -0.03100
C679        C  0.25028239  0.38411801  0.98683778    -0.00500
C680        C  0.24651163  0.36205145  0.95474276    -0.23300
C681        C  0.27766923  0.34703036  0.94839338    -0.23600
C682        C  0.29927318  0.35915097  0.97798730    -0.00600
H683        H  0.22379960  0.35808377  0.93685653     0.13200
H684        H  0.28446032  0.33088488  0.92318297     0.13300
O685        O  0.37957200  0.06826861  0.89605681    -0.81400
C686        C  0.27198239  0.09836468  0.99660659     0.98000
O687        O  0.27334869  0.06959453  0.97878417    -0.70500
O688        O  0.28213384  0.09296270  0.90335088    -0.74100
Al689      Al  0.30516271  0.05893058  0.93556258     1.49000
C690        C  0.29801547  0.11126550  0.87785738     0.93200
O691        O  0.35032799  0.15295359  0.93737008    -0.80300
O692        O  0.39142338  0.08363213  0.67378500    -0.73900
Al693      Al  0.36385723  0.10931757  0.91954039     1.90100
O694        O  0.35408112  0.14379080  0.66828729    -0.72900
O695        O  0.33455678  0.04851225  0.68735438    -0.72800
O696        O  0.29846087  0.11044411  0.67896747    -0.78400
O697        O  0.32711467  0.02228873  0.96340572    -0.76600
O698        O  0.33764537  0.08798587  0.95372882    -1.12800
O699        O  0.32950123  0.04390725  0.88753918    -0.72000
C700        C  0.35974657  0.04966069  0.87547253     0.98700
C701        C  0.35202388  0.16430535  0.97255340     0.95100
Al702      Al  0.34377643  0.09538144  0.67310983     1.55600
O703        O  0.33000494  0.11439280  0.87980581    -0.76600
C704        C  0.34135990  0.02377455  0.99744716     0.99300
C705        C  0.41348727  0.09691070  0.98423141     0.94200
O706        O  0.40461641  0.10999424  0.95130255    -0.81900
N707        N  0.28056019  0.13158146  0.84821590    -0.03100
C708        C  0.24751674  0.12954947  0.83592997    -0.00500
C709        C  0.24103084  0.15663322  0.81005279    -0.23300
C710        C  0.27079463  0.17497813  0.80560248    -0.23600
C711        C  0.29505282  0.15877623  0.82868394    -0.00600
H712        H  0.21888482  0.15953839  0.79097578     0.13200
H713        H  0.27542531  0.19466301  0.78334113     0.13300
N714        N  0.37100727  0.03795924  0.83670333    -0.03100
C715        C  0.36735580  0.00638209  0.82026610    -0.00500
C716        C  0.38945282  0.00267837  0.78819756    -0.23300
C717        C  0.40444397  0.03389197  0.78184974    -0.23600
C718        C  0.39225556  0.05546834  0.81140368    -0.00600
H719        H  0.39343325  0.47997092  0.77029947     0.13200
H720        H  0.42060784  0.04073915  0.75665785     0.13300
O721        O  0.36562889  0.18916392  0.72938982    -0.81400
C722        C  0.47321706  0.15906642  0.82993983     0.98000
O723        O  0.47185199  0.18783616  0.81211636    -0.70500
O724        O  0.46306664  0.16446717  0.73668429    -0.74100
Al725      Al  0.44003855  0.19850053  0.76889493     1.49000
C726        C  0.44718477  0.14616496  0.71119089     0.93200
O727        O  0.39487248  0.10447891  0.77070342    -0.80300
O728        O  0.35377623  0.17380131  0.84045130    -0.73900
Al729      Al  0.38134313  0.14811477  0.75287365     1.90100
O730        O  0.39111824  0.11364197  0.83495386    -0.72900
O731        O  0.41064353  0.20892059  0.85402020    -0.72800
O732        O  0.44673803  0.14698816  0.84563440    -0.78400
O733        O  0.41808774  0.23514335  0.79673770    -0.76600
O734        O  0.40755492  0.16944646  0.78706176    -1.12800
O735        O  0.41570043  0.21352411  0.72087123    -0.72000
C736        C  0.38545486  0.20777149  0.70880505     0.98700
C737        C  0.39317674  0.09312733  0.80588686     0.95100
Al738      Al  0.40142310  0.16205142  0.83977607     1.55600
O739        O  0.41519517  0.14303936  0.71313857    -0.76600
C740        C  0.40384210  0.23365857  0.83077931     0.99300
C741        C  0.33171258  0.16052190  0.81756519     0.94200
O742        O  0.34058380  0.14743788  0.78463652    -0.81900
N743        N  0.46463993  0.12584866  0.68154962    -0.03100
C744        C  0.49768339  0.12788077  0.00259667    -0.00500
C745        C  0.50416908  0.10079811  0.97671759    -0.23300
C746        C  0.47440494  0.08245416  0.97226622    -0.23600
C747        C  0.45014698  0.09865530  0.99534908    -0.00600
H748        H  0.02631490  0.09789361  0.95764024     0.13200
H749        H  0.46977400  0.06277051  0.95000324     0.13300
N750        N  0.37419435  0.21947329  0.67003587    -0.03100
C751        C  0.37784580  0.25105049  0.98693223    -0.00500
C752        C  0.35574915  0.25475429  0.95486364    -0.23300
C753        C  0.34075815  0.22354079  0.94851580    -0.23600
C754        C  0.35294613  0.20196434  0.97806967    -0.00600
H755        H  0.35176869  0.27746176  0.93696617     0.13200
H756        H  0.32459409  0.21669372  0.92332378     0.13300
O757        O  0.06208196  0.12171847  0.89602802    -0.81400
C758        C  0.09242335  0.22924458  0.99668999     0.98000
O759        O  0.06363633  0.22784477  0.97891062    -0.70500
O760        O  0.08697067  0.21916079  0.90343546    -0.74100
Al761      Al  0.05292372  0.19606746  0.93565440     1.49000
C762        C  0.10521348  0.20331167  0.87789752     0.93200
O763        O  0.14688797  0.15093858  0.93732701    -0.80300
O764        O  0.07757066  0.10975712  0.67379888    -0.73900
Al765      Al  0.10318918  0.13742505  0.91951938     1.90100
O766        O  0.13776066  0.14718547  0.66824733    -0.72900
O767        O  0.04254111  0.16660708  0.68742477    -0.72800
O768        O  0.10451131  0.20276928  0.67897040    -0.78400
O769        O  0.01627939  0.17405803  0.96350273    -0.76600
O770        O  0.08193984  0.16359317  0.95375490    -1.12800
O771        O  0.03783359  0.17178256  0.88760707    -0.72000
C772        C  0.04352882  0.14156693  0.87547101     0.98700
C773        C  0.15826252  0.14923124  0.97249921     0.95100
Al774      Al  0.08937713  0.15743938  0.67311822     1.55600
O775        O  0.10832216  0.17132906  0.87984237    -0.76600
C776        C  0.01776085  0.15982326  0.99754607     0.99300
C777        C  0.09078708  0.08772259  0.98419847     0.94200
O778        O  0.10379187  0.09663464  0.95122753    -0.81900
N779        N  0.12546423  0.22080140  0.84818009    -0.01500
C780        C  0.12334196  0.25380982  0.83579022    -0.00500
C781        C  0.15037619  0.26036071  0.80984001    -0.23300
C782        C  0.16876932  0.23067245  0.80543817    -0.23600
C783        C  0.15264934  0.20638139  0.82861913    -0.00600
H784        H  0.15322746  0.28248964  0.79071469     0.13200
H785        H  0.18842742  0.22608934  0.78314571     0.13300
N786        N  0.03182316  0.13038047  0.83665879    -0.03100
C787        C  0.00028166  0.13411945  0.82017373    -0.00500
C788        C  0.99651264  0.11205094  0.78808041    -0.23300
C789        C  0.02767032  0.09702949  0.78173471    -0.23600
C790        C  0.04927283  0.10915256  0.81132856    -0.00600
H791        H  0.47380267  0.10808290  0.77019226     0.13200
H792        H  0.03446245  0.08088274  0.75652603     0.13300
O793        O  0.12957319  0.31826921  0.72940285    -0.81400
C794        C  0.02198140  0.34836645  0.82994313     0.98000
O795        O  0.02334734  0.31959477  0.81212390    -0.70500
O796        O  0.03213388  0.34295854  0.73669036    -0.74100
Al797      Al  0.05516251  0.30892833  0.76890543     1.49000
C798        C  0.04801620  0.36126167  0.71119805     0.93200
O799        O  0.10032347  0.40295304  0.77071652    -0.80300
O800        O  0.14142140  0.33363034  0.84046401    -0.73900
Al801      Al  0.11385598  0.35931753  0.75288619     1.90100
O802        O  0.10407948  0.39378955  0.83496666    -0.72900
O803        O  0.08455408  0.29851093  0.85403261    -0.72800
O804        O  0.04845844  0.36044373  0.84564304    -0.78400
O805        O  0.07711300  0.27228681  0.79675105    -0.76600
O806        O  0.08764424  0.33798440  0.78707318    -1.12800
O807        O  0.07950402  0.29390409  0.72088477    -0.72000
C808        C  0.10974932  0.29965911  0.70881889     0.98700
C809        C  0.10201975  0.41430454  0.80590007     0.95100
Al810      Al  0.09377424  0.34538011  0.83978795     1.55600
O811        O  0.08000534  0.36439073  0.71314996    -0.76600
C812        C  0.09135804  0.27377302  0.83079246     0.99300
C813        C  0.16348523  0.34691042  0.81757796     0.94200
O814        O  0.15461414  0.35999590  0.78465022    -0.81900
N815        N  0.03056226  0.38157846  0.68155606    -0.03100
C816        C  0.99751938  0.37954876  0.00259999    -0.00500
C817        C  0.99103543  0.40663638  0.97672751    -0.23300
C818        C  0.02079966  0.42498162  0.97228389    -0.23600
C819        C  0.04505618  0.40877565  0.99536375    -0.00600
H820        H  0.46889073  0.40954438  0.95764852     0.13200
H821        H  0.02543239  0.44466911  0.95002631     0.13300
N822        N  0.12101181  0.28795685  0.67005063    -0.03100
C823        C  0.11735990  0.25637979  0.98694631    -0.00500
C824        C  0.13945719  0.25267628  0.95487792    -0.23300
C825        C  0.15444912  0.28388968  0.94853114    -0.23600
C826        C  0.14226052  0.30546615  0.97808488    -0.00600
H827        H  0.14343666  0.22996933  0.93697852     0.13200
H828        H  0.17061293  0.29073709  0.92333924     0.13300
O829        O  0.43311444  0.38571647  0.89601951    -0.81400
C830        C  0.40278023  0.27818646  0.99667803     0.98000
O831        O  0.43156778  0.27958842  0.97889940    -0.70500
O832        O  0.40823382  0.28827201  0.90342305    -0.74100
Al833      Al  0.44227869  0.31136726  0.93564426     1.49000
C834        C  0.38998929  0.30412090  0.87788662     0.93200
O835        O  0.34831048  0.35648901  0.93731992    -0.80300
O836        O  0.41762839  0.39767323  0.67378992    -0.73900
Al837      Al  0.39200859  0.37000620  0.91951140     1.90100
O838        O  0.35743872  0.36024358  0.66823966    -0.72900
O839        O  0.45265846  0.34082306  0.68741726    -0.72800
O840        O  0.39069005  0.30466018  0.67895993    -0.78400
O841        O  0.47892127  0.33337918  0.96349409    -0.76600
O842        O  0.41326011  0.34383869  0.95374578    -1.12800
O843        O  0.45736714  0.33565425  0.88759923    -0.72000
C844        C  0.45166952  0.36586927  0.87546316     0.98700
C845        C  0.33693636  0.35819629  0.97249263     0.95100
Al846      Al  0.40582257  0.34999068  0.67310936     1.55600
O847        O  0.38687806  0.33610312  0.87983385    -0.76600
C848        C  0.47744006  0.34760847  0.99754078     0.99300
C849        C  0.40441094  0.41970767  0.98419015     0.94200
O850        O  0.39140386  0.41079564  0.95122073    -0.81900
N851        N  0.36973853  0.28663169  0.84816868    -0.03100
C852        C  0.37185969  0.25362361  0.83577720    -0.00500
C853        C  0.34482506  0.24707365  0.80982767    -0.23300
C854        C  0.32643238  0.27676231  0.80542780    -0.23600
C855        C  0.34255302  0.30105229  0.82860938    -0.00600
H856        H  0.34197330  0.22494503  0.79070198     0.13200
H857        H  0.30677352  0.28134662  0.78313650     0.13300
N858        N  0.46337689  0.37705602  0.83665206    -0.03100
C859        C  0.49491898  0.37331424  0.82016955    -0.00500
C860        C  0.49869037  0.39538010  0.78807381    -0.23300
C861        C  0.46753291  0.41040108  0.78172372    -0.23600
C862        C  0.44592842  0.39828151  0.81131827    -0.00600
H863        H  0.02140272  0.39934777  0.77018761     0.13200
H864        H  0.46074258  0.42654622  0.75651310     0.13300
O865        O  0.18311589  0.63571226  0.06269283    -0.81400
C866        C  0.15277621  0.52818578  0.16335678     0.98000
O867        O  0.18156306  0.52958594  0.14557650    -0.70500
O868        O  0.15822857  0.53826988  0.07010165    -0.74100
Al869      Al  0.19227519  0.56136351  0.10232022     1.49000
C870        C  0.13998514  0.55411892  0.04456442     0.93200
O871        O  0.09831022  0.60649216  0.10399544    -0.80300
O872        O  0.16762742  0.64767315  0.17379863    -0.73900
Al873      Al  0.14200893  0.62000555  0.08618623     1.90100
O874        O  0.10743800  0.61024349  0.16824874    -0.72900
O875        O  0.20265809  0.59082400  0.18742415    -0.72800
O876        O  0.14068832  0.55466066  0.17897136    -0.78400
O877        O  0.22891946  0.58337357  0.13016776    -0.76600
O878        O  0.16325872  0.59383740  0.12042139    -1.12800
O879        O  0.20736497  0.58564833  0.05427270    -0.72000
C880        C  0.20166925  0.61586366  0.04213596     0.98700
C881        C  0.08693597  0.60819830  0.13916805     0.95100
Al882      Al  0.15582173  0.59999081  0.17311828     1.55600
O883        O  0.13687551  0.58610143  0.04650994    -0.76600
C884        C  0.22743855  0.59760757  0.16421170     0.99300
C885        C  0.15441160  0.66970778  0.15086471     0.94200
O886        O  0.14140680  0.66079587  0.11789410    -0.81900
N887        N  0.11973484  0.53662914  0.01484682    -0.03100
C888        C  0.12185756  0.50362068  0.33578997    -0.00500
C889        C  0.09482351  0.49706967  0.30984006    -0.23300
C890        C  0.07642998  0.52675776  0.30543873    -0.23600
C891        C  0.09254958  0.55104890  0.32861966    -0.00600
H892        H  0.09197256  0.97494071  0.29071418     0.13200
H893        H  0.05677171  0.53134095  0.28314683     0.13300
N894        N  0.21337539  0.62704965  0.00332352    -0.03100
C895        C  0.24491744  0.62331076  0.32017203    -0.00500
C896        C  0.24868644  0.64537806  0.28807739    -0.23300
C897        C  0.21752844  0.66039814  0.28173046    -0.23600
C898        C  0.19592571  0.64827597  0.31132522    -0.00600
H899        H  0.27139781  0.64934671  0.27018914     0.13200
H900        H  0.21073630  0.67654399  0.25652131     0.13300
O901        O  0.11562710  0.93916013  0.22940291    -0.81400
C902        C  0.22321945  0.90906543  0.32994327     0.98000
O903        O  0.22185320  0.93783650  0.31212268    -0.70500
O904        O  0.21306663  0.91447170  0.23668967    -0.74100
Al905      Al  0.19003772  0.94850209  0.26890451     1.49000
C906        C  0.19718445  0.89616828  0.21119781     0.93200
O907        O  0.14487738  0.85447696  0.27071710    -0.80300
O908        O  0.10377967  0.92380009  0.00713129    -0.73900
Al909      Al  0.13134472  0.89811222  0.25288663     1.90100
O910        O  0.14112204  0.86364064  0.00163396    -0.72900
O911        O  0.16064591  0.95892011  0.02069878    -0.72800
O912        O  0.19674233  0.89698780  0.01230984    -0.78400
O913        O  0.16808672  0.98514360  0.29674995    -0.76600
O914        O  0.15755631  0.91944590  0.28707307    -1.12800
O915        O  0.16569616  0.96352576  0.22088412    -0.72000
C916        C  0.13545096  0.95777048  0.20881865     0.98700
C917        C  0.14318140  0.84312557  0.30590076     0.95100
Al918      Al  0.15142648  0.91205059  0.00645472     1.55600
O919        O  0.16519532  0.89303902  0.21314994    -0.76600
C920        C  0.15384167  0.98365766  0.33079171     0.99300
C921        C  0.08171583  0.91051991  0.31757905     0.94200
O922        O  0.09058672  0.89743389  0.28465142    -0.81900
N923        N  0.21463859  0.87585230  0.18155512    -0.03100
C924        C  0.24768163  0.87788277  0.16926619    -0.00500
C925        C  0.25416630  0.85079600  0.14339277    -0.23300
C926        C  0.22440224  0.83245068  0.13894821    -0.23600
C927        C  0.20014507  0.84865544  0.16202870    -0.00600
H928        H  0.27631131  0.84788874  0.12431424     0.13200
H929        H  0.21977045  0.81276340  0.11669000     0.13300
N930        N  0.12418853  0.96947308  0.17005055    -0.03100
C931        C  0.12783974  0.00105068  0.15361346    -0.00500
C932        C  0.10574254  0.00475440  0.12154547    -0.23300
C933        C  0.09075163  0.97354072  0.11519772    -0.23600
C934        C  0.10294051  0.95196391  0.14475089    -0.00600
H935        H  0.10176258  0.52746212  0.10364674     0.13200
H936        H  0.07458826  0.96669328  0.09000544     0.13300
O937        O  0.31208689  0.87171730  0.06268741    -0.81400
C938        C  0.34242098  0.97924633  0.16334553     0.98000
O939        O  0.31363353  0.97784466  0.14556728    -0.70500
O940        O  0.33696776  0.96916172  0.07009080    -0.74100
Al941      Al  0.30292251  0.94606633  0.10231211     1.49000
C942        C  0.35521218  0.95331293  0.04455385     0.93200
O943        O  0.39689089  0.90094594  0.10398551    -0.80300
O944        O  0.32757292  0.85975987  0.17378940    -0.73900
Al945      Al  0.35319285  0.88742792  0.08617802     1.90100
O946        O  0.38776273  0.89718953  0.16823872    -0.72900
O947        O  0.29254219  0.91660879  0.18741798    -0.72800
O948        O  0.35451069  0.95277253  0.17896076    -0.78400
O949        O  0.26627971  0.92405412  0.13016214    -0.76600
O950        O  0.33194102  0.91359483  0.12041299    -1.12800
O951        O  0.28783408  0.92177942  0.05426700    -0.72000
C952        C  0.29353165  0.89156429  0.04213119     0.98700
C953        C  0.40826511  0.89923729  0.13915789     0.95100
Al954      Al  0.33937848  0.90744215  0.17310955     1.55600
O955        O  0.35832257  0.92133069  0.04650011    -0.76600
C956        C  0.26776078  0.90982365  0.16420817     0.99300
C957        C  0.34079123  0.83772597  0.15085614     0.94200
O958        O  0.35379862  0.84663858  0.11788689    -0.81900
N959        N  0.37546393  0.97080224  0.01483665    -0.03100
C960        C  0.37334276  0.00381017  0.33577876    -0.00500
C961        C  0.40037797  0.01036011  0.30982942    -0.23300
C962        C  0.41877087  0.98067143  0.30542964    -0.23600
C963        C  0.40264955  0.95638130  0.32861061    -0.00600
H964        H  0.40323004  0.53248859  0.29070354     0.13200
H965        H  0.43843001  0.97608706  0.28313816     0.13300
N966        N  0.28182437  0.88037701  0.00332045    -0.03100
C967        C  0.25028254  0.88411807  0.32017120    -0.00500
C968        C  0.24651181  0.86205147  0.28807629    -0.23300
C969        C  0.27766935  0.84703031  0.28172703    -0.23600
C970        C  0.29927326  0.85915093  0.31132084    -0.00600
H971        H  0.22380011  0.85808356  0.27019027     0.13200
H972        H  0.28446005  0.83088476  0.25651676     0.13300
O973        O  0.37957200  0.56826866  0.22939016    -0.81400
C974        C  0.27198252  0.59836475  0.32993990     0.98000
O975        O  0.27334883  0.56959453  0.31211760    -0.70500
O976        O  0.28213379  0.59296278  0.23668428    -0.74100
Al977      Al  0.30516273  0.55893068  0.26889595     1.49000
C978        C  0.29801547  0.61126555  0.21119075     0.93200
O979        O  0.35032802  0.65295359  0.27070338    -0.80300
O980        O  0.39142343  0.58363219  0.00711829    -0.73900
Al981      Al  0.36385727  0.60931762  0.25287373     1.90100
O982        O  0.35408120  0.64379088  0.00162066    -0.72900
O983        O  0.33455685  0.54851232  0.02068781    -0.72800
O984        O  0.29846097  0.61044417  0.01230079    -0.78400
O985        O  0.32711465  0.52228888  0.29673903    -0.76600
O986        O  0.33764547  0.58798590  0.28706216    -1.12800
O987        O  0.32950118  0.54390734  0.22087246    -0.72000
C988        C  0.35974656  0.54966068  0.20880585     0.98700
C989        C  0.35202375  0.66430541  0.30588667     0.95100
Al990      Al  0.34377652  0.59538149  0.00644309     1.55600
O991        O  0.33000499  0.61439279  0.21313916    -0.76600
C992        C  0.34135983  0.52377446  0.33078048     0.99300
C993        C  0.41348734  0.59691069  0.31756468     0.94200
O994        O  0.40461647  0.60999444  0.28463590    -0.81900
N995        N  0.28056018  0.63158155  0.18154927    -0.03100
C996        C  0.24751669  0.62954957  0.16926326    -0.00500
C997        C  0.24103084  0.65663336  0.14338607    -0.23300
C998        C  0.27079468  0.67497818  0.13893591    -0.23600
C999        C  0.29505288  0.65877627  0.16201733    -0.00600
H1000       H  0.21888475  0.65953880  0.12430905     0.13200
H1001       H  0.27542534  0.69466306  0.11667460     0.13300
N1002       N  0.37100732  0.53795912  0.17003659    -0.03100
C1003       C  0.36735580  0.50638196  0.15359927    -0.00500
C1004       C  0.38945286  0.50267836  0.12153066    -0.23300
C1005       C  0.40444405  0.53389182  0.11518283    -0.23600
C1006       C  0.39225557  0.55546823  0.14473674    -0.00600
H1007       H  0.39343312  0.97997058  0.10363265     0.13200
H1008       H  0.42060825  0.54073923  0.08999049     0.13300
O1009       O  0.36562891  0.68916382  0.06272320    -0.81400
C1010       C  0.47321707  0.65906644  0.16327319     0.98000
O1011       O  0.47185200  0.68783624  0.14544966    -0.70500
O1012       O  0.46306664  0.66446711  0.07001771    -0.74100
Al1013     Al  0.44003847  0.69850051  0.10222826     1.49000
C1014       C  0.44718484  0.64616493  0.04452418     0.93200
O1015       O  0.39487251  0.60447896  0.10403681    -0.80300
O1016       O  0.35377620  0.67380143  0.17378468    -0.73900
Al1017     Al  0.38134311  0.64811473  0.08620702     1.90100
O1018       O  0.39111820  0.61364195  0.16828721    -0.72900
O1019       O  0.41064352  0.70892062  0.18735356    -0.72800
O1020       O  0.44673808  0.64698809  0.17896780    -0.78400
O1021       O  0.41808768  0.73514340  0.13007100    -0.76600
O1022       O  0.40755490  0.66944634  0.12039514    -1.12800
O1023       O  0.41570033  0.71352402  0.05420460    -0.72000
C1024       C  0.38545483  0.70777137  0.04213846     0.98700
C1025       C  0.39317686  0.59312731  0.13922020     0.95100
Al1026     Al  0.40142306  0.66205138  0.17310947     1.55600
O1027       O  0.41519520  0.64303925  0.04647196    -0.76600
C1028       C  0.40384209  0.73365860  0.16411265     0.99300
C1029       C  0.33171261  0.66052190  0.15089859     0.94200
O1030       O  0.34058379  0.64743786  0.11796990    -0.81900
N1031       N  0.46464006  0.62584857  0.01488280    -0.03100
C1032       C  0.49768358  0.62788073  0.33593015    -0.00500
C1033       C  0.50416922  0.60079830  0.31005092    -0.23300
C1034       C  0.47440514  0.58245423  0.30559966    -0.23600
C1035       C  0.45014707  0.59865532  0.32868253    -0.00600
H1036       H  0.02631492  0.59789361  0.29097365     0.13200
H1037       H  0.46977424  0.56277091  0.28333678     0.13300
N1038       N  0.37419441  0.71947324  0.00336936    -0.03100
C1039       C  0.37784577  0.75105071  0.32026544    -0.00500
C1040       C  0.35574920  0.75475453  0.28819689    -0.23300
C1041       C  0.34075819  0.72354105  0.28184901    -0.23600
C1042       C  0.35294607  0.70196449  0.31140298    -0.00600
H1043       H  0.35176868  0.77746243  0.27029892     0.13200
H1044       H  0.32459442  0.71669380  0.25665720     0.13300
O1045       O  0.06208199  0.62171836  0.22936130    -0.81400
C1046       C  0.09242334  0.72924445  0.33002320     0.98000
O1047       O  0.06363626  0.72784470  0.31224390    -0.70500
O1048       O  0.08697057  0.71916077  0.23676877    -0.74100
Al1049     Al  0.05292366  0.69606749  0.26898776     1.49000
C1050       C  0.10521350  0.70331168  0.21123085     0.93200
O1051       O  0.14688810  0.65093865  0.27066035    -0.80300
O1052       O  0.07757059  0.60975714  0.00713224    -0.73900
Al1053     Al  0.10318917  0.63742514  0.25285273     1.90100
O1054       O  0.13776071  0.64718552  0.00158050    -0.72900
O1055       O  0.04254123  0.66660713  0.02075810    -0.72800
O1056       O  0.10451137  0.70276933  0.01230369    -0.78400
O1057       O  0.01627925  0.67405800  0.29683600    -0.76600
O1058       O  0.08193973  0.66359322  0.28708836    -1.12800
O1059       O  0.03783359  0.67178249  0.22094049    -0.72000
C1060       C  0.04352892  0.64156684  0.20880433     0.98700
C1061       C  0.15826261  0.64923119  0.30583255     0.95100
Al1062     Al  0.08937714  0.65743937  0.00645145     1.55600
O1063       O  0.10832215  0.67132911  0.21317573    -0.76600
C1064       C  0.01776082  0.65982317  0.33087937     0.99300
C1065       C  0.09078714  0.58772258  0.31753178     0.94200
O1066       O  0.10379194  0.59663461  0.28456078    -0.81900
N1067       N  0.12546439  0.72080145  0.18151339    -0.01500
C1068       C  0.12334213  0.75380991  0.16912348    -0.00500
C1069       C  0.15037628  0.76036075  0.14317295    -0.23300
C1070       C  0.16876941  0.73067247  0.13877107    -0.23600
C1071       C  0.15264958  0.70638142  0.16195223    -0.00600
H1072       H  0.15322722  0.78248979  0.12404748     0.13200
H1073       H  0.18842790  0.72608903  0.11647822     0.13300
N1074       N  0.03182324  0.63038038  0.16999210    -0.03100
C1075       C  0.00028173  0.63411928  0.15350711    -0.00500
C1076       C  0.99651277  0.61205077  0.12141361    -0.23300
C1077       C  0.02767044  0.59702939  0.11506799    -0.23600
C1078       C  0.04927293  0.60915241  0.14466187    -0.00600
H1079       H  0.47380195  0.60808236  0.10352571     0.13200
H1080       H  0.03446261  0.58088213  0.08985939     0.13300
O1081       O  0.12957318  0.81826925  0.06273628    -0.81400
C1082       C  0.02198132  0.84836652  0.16327646     0.98000
O1083       O  0.02334725  0.81959483  0.14545725    -0.70500
O1084       O  0.03213377  0.84295848  0.07002363    -0.74100
Al1085     Al  0.05516250  0.80892835  0.10223881     1.49000
C1086       C  0.04801616  0.86126172  0.04453142     0.93200
O1087       O  0.10032339  0.90295310  0.10404984    -0.80300
O1088       O  0.14142140  0.83363028  0.17379738    -0.73900
Al1089     Al  0.11385592  0.85931754  0.08621954     1.90100
O1090       O  0.10407949  0.89378961  0.16829999    -0.72900
O1091       O  0.08455401  0.79851094  0.18736596    -0.72800
O1092       O  0.04845837  0.86044380  0.17897639    -0.78400
O1093       O  0.07711287  0.77228688  0.13008448    -0.76600
O1094       O  0.08764428  0.83798436  0.12040659    -1.12800
O1095       O  0.07950405  0.79390397  0.05421816    -0.72000
C1096       C  0.10974933  0.79965912  0.04215228     0.98700
C1097       C  0.10201970  0.91430462  0.13923340     0.95100
Al1098     Al  0.09377426  0.84538010  0.17312132     1.55600
O1099       O  0.08000532  0.86439071  0.04648321    -0.76600
C1100       C  0.09135815  0.77377317  0.16412573     0.99300
C1101       C  0.16348516  0.84691051  0.15091135     0.94200
O1102       O  0.15461404  0.85999602  0.11798360    -0.81900
N1103       N  0.03056230  0.88157843  0.01488930    -0.03100
C1104       C  0.99751964  0.87954868  0.33593348    -0.00500
C1105       C  0.99103556  0.90663631  0.31006110    -0.23300
C1106       C  0.02079975  0.92498162  0.30561723    -0.23600
C1107       C  0.04505626  0.90877574  0.32869702    -0.00600
H1108       H  0.46889073  0.90954400  0.29098237     0.13200
H1109       H  0.02543191  0.94466958  0.28335960     0.13300
N1110       N  0.12101182  0.78795688  0.00338401    -0.03100
C1111       C  0.11735987  0.75637978  0.32027959    -0.00500
C1112       C  0.13945729  0.75267635  0.28821123    -0.23300
C1113       C  0.15444914  0.78388980  0.28186437    -0.23600
C1114       C  0.14226054  0.80546622  0.31141817    -0.00600
H1115       H  0.14343666  0.72996941  0.27031183     0.13200
H1116       H  0.17061331  0.79073730  0.25667249     0.13300
O1117       O  0.43311445  0.88571639  0.22935290    -0.81400
C1118       C  0.40278024  0.77818649  0.33001155     0.98000
O1119       O  0.43156768  0.77958850  0.31223277    -0.70500
O1120       O  0.40823376  0.78827213  0.23675636    -0.74100
Al1121     Al  0.44227873  0.81136720  0.26897763     1.49000
C1122       C  0.38998920  0.80412096  0.21121999     0.93200
O1123       O  0.34831046  0.85648900  0.27065337    -0.80300
O1124       O  0.41762838  0.89767322  0.00712328    -0.73900
Al1125     Al  0.39200862  0.87000618  0.25284485     1.90100
O1126       O  0.35743869  0.86024353  0.00157298    -0.72900
O1127       O  0.45265851  0.84082309  0.02075052    -0.72800
O1128       O  0.39069009  0.80466013  0.01229323    -0.78400
O1129       O  0.47892128  0.83337919  0.29682745    -0.76600
O1130       O  0.41326023  0.84383866  0.28707927    -1.12800
O1131       O  0.45736719  0.83565419  0.22093251    -0.72000
C1132       C  0.45166945  0.86586915  0.20879638     0.98700
C1133       C  0.33693635  0.85819635  0.30582606     0.95100
Al1134     Al  0.40582259  0.84999066  0.00644268     1.55600
O1135       O  0.38687801  0.83610314  0.21316725    -0.76600
C1136       C  0.47744018  0.84760843  0.33087417     0.99300
C1137       C  0.40441106  0.91970760  0.31752348     0.94200
O1138       O  0.39140396  0.91079558  0.28455408    -0.81900
N1139       N  0.36973859  0.78663167  0.18150202    -0.03100
C1140       C  0.37185969  0.75362357  0.16911055    -0.00500
C1141       C  0.34482509  0.74707371  0.14316104    -0.23300
C1142       C  0.32643239  0.77676231  0.13876134    -0.23600
C1143       C  0.34255316  0.80105231  0.16194276    -0.00600
H1144       H  0.34197287  0.72494505  0.12403529     0.13200
H1145       H  0.30677397  0.78134656  0.11647002     0.13300
N1146       N  0.46337689  0.87705607  0.16998532    -0.03100
C1147       C  0.49491900  0.87331427  0.15350287    -0.00500
C1148       C  0.49869030  0.89538015  0.12140712    -0.23300
C1149       C  0.46753286  0.91040119  0.11505706    -0.23600
C1150       C  0.44592838  0.89828156  0.14465149    -0.00600
H1151       H  0.02140261  0.89934792  0.10352144     0.13200
H1152       H  0.46074251  0.92654626  0.08984593     0.13300
O1153       O  0.18311593  0.63571220  0.39602625    -0.81400
C1154       C  0.15277622  0.52818576  0.49669016     0.98000
O1155       O  0.18156311  0.52958591  0.47890995    -0.70500
O1156       O  0.15822849  0.53826983  0.40343504    -0.74100
Al1157     Al  0.19227521  0.56136347  0.43565355     1.49000
C1158       C  0.13998510  0.55411877  0.37789781     0.93200
O1159       O  0.09831026  0.60649221  0.43732865    -0.80300
O1160       O  0.16762750  0.64767320  0.50713193    -0.73900
Al1161     Al  0.14200898  0.62000543  0.41951950     1.90100
O1162       O  0.10743797  0.61024352  0.50158211    -0.72900
O1163       O  0.20265810  0.59082400  0.52075738    -0.72800
O1164       O  0.14068828  0.55466063  0.51230469    -0.78400
O1165       O  0.22891951  0.58337357  0.46350115    -0.76600
O1166       O  0.16325884  0.59383734  0.45375471    -1.12800
O1167       O  0.20736483  0.58564833  0.38760604    -0.72000
C1168       C  0.20166928  0.61586366  0.37546937     0.98700
C1169       C  0.08693599  0.60819833  0.47250131     0.95100
Al1170     Al  0.15582179  0.59999079  0.50645164     1.55600
O1171       O  0.13687550  0.58610129  0.37984330    -0.76600
C1172       C  0.22743857  0.59760764  0.49754500     0.99300
C1173       C  0.15441156  0.66970778  0.48419799     0.94200
O1174       O  0.14140675  0.66079578  0.45122731    -0.81900
N1175       N  0.11973484  0.53662911  0.34818015    -0.03100
C1176       C  0.12185757  0.50362075  0.66912316    -0.00500
C1177       C  0.09482349  0.49706971  0.64317327    -0.23300
C1178       C  0.07642995  0.52675776  0.63877192    -0.23600
C1179       C  0.09254957  0.55104891  0.66195281    -0.00600
H1180       H  0.09197298  0.97494072  0.62404757     0.13200
H1181       H  0.05677170  0.53134107  0.61647956     0.13300
N1182       N  0.21337546  0.62704963  0.33665684    -0.03100
C1183       C  0.24491748  0.62331079  0.65350550    -0.00500
C1184       C  0.24868638  0.64537807  0.62141081    -0.23300
C1185       C  0.21752835  0.66039813  0.61506385    -0.23600
C1186       C  0.19592572  0.64827602  0.64465863    -0.00600
H1187       H  0.27139764  0.64934697  0.60352291     0.13200
H1188       H  0.21073620  0.67654402  0.58985460     0.13300
O1189       O  0.11562712  0.93916018  0.56273614    -0.81400
C1190       C  0.22321941  0.90906553  0.66327676     0.98000
O1191       O  0.22185322  0.93783651  0.64545596    -0.70500
O1192       O  0.21306666  0.91447170  0.57002300    -0.74100
Al1193     Al  0.19003767  0.94850206  0.60223792     1.49000
C1194       C  0.19718450  0.89616841  0.54453104     0.93200
O1195       O  0.14487752  0.85447698  0.60405032    -0.80300
O1196       O  0.10377950  0.92379999  0.34046460    -0.73900
Al1197     Al  0.13134475  0.89811222  0.58621999     1.90100
O1198       O  0.14112201  0.86364072  0.33496728    -0.72900
O1199       O  0.16064581  0.95892001  0.35403207    -0.72800
O1200       O  0.19674233  0.89698781  0.34564307    -0.78400
O1201       O  0.16808672  0.98514361  0.63008328    -0.76600
O1202       O  0.15755628  0.91944588  0.62040655    -1.12800
O1203       O  0.16569608  0.96352571  0.55421737    -0.72000
C1204       C  0.13545087  0.95777055  0.54215192     0.98700
C1205       C  0.14318149  0.84312554  0.63923400     0.95100
Al1206     Al  0.15142648  0.91205055  0.33978805     1.55600
O1207       O  0.16519535  0.89303901  0.54648331    -0.76600
C1208       C  0.15384164  0.98365771  0.66412495     0.99300
C1209       C  0.08171589  0.91051999  0.65091255     0.94200
O1210       O  0.09058676  0.89743390  0.61798495    -0.81900
N1211       N  0.21463867  0.87585226  0.51488847    -0.03100
C1212       C  0.24768175  0.87788277  0.50259934    -0.00500
C1213       C  0.25416624  0.85079595  0.47672590    -0.23300
C1214       C  0.22440221  0.83245054  0.47228150    -0.23600
C1215       C  0.20014513  0.84865541  0.49536209    -0.00600
H1216       H  0.27631145  0.84788837  0.45764708     0.13200
H1217       H  0.21977021  0.81276312  0.45002360     0.13300
N1218       N  0.12418842  0.96947312  0.50338390    -0.03100
C1219       C  0.12783962  0.00105074  0.48694678    -0.00500
C1220       C  0.10574250  0.00475440  0.45487882    -0.23300
C1221       C  0.09075157  0.97354072  0.44853118    -0.23600
C1222       C  0.10294049  0.95196388  0.47808432    -0.00600
H1223       H  0.10176254  0.52746213  0.43697974     0.13200
H1224       H  0.07458808  0.96669327  0.42333946     0.13300
O1225       O  0.31208685  0.87171729  0.39602079    -0.81400
C1226       C  0.34242098  0.97924633  0.49667887     0.98000
O1227       O  0.31363357  0.97784468  0.47890055    -0.70500
O1228       O  0.33696769  0.96916175  0.40342418    -0.74100
Al1229     Al  0.30292250  0.94606634  0.43564544     1.49000
C1230       C  0.35521215  0.95331294  0.37788722     0.93200
O1231       O  0.39689099  0.90094587  0.43731898    -0.80300
O1232       O  0.32757297  0.85975982  0.50712272    -0.73900
Al1233     Al  0.35319288  0.88742794  0.41951133     1.90100
O1234       O  0.38776273  0.89718957  0.50157205    -0.72900
O1235       O  0.29254221  0.91660875  0.52075131    -0.72800
O1236       O  0.35451070  0.95277253  0.51229405    -0.78400
O1237       O  0.26627970  0.92405416  0.46349541    -0.76600
O1238       O  0.33194103  0.91359481  0.45374626    -1.12800
O1239       O  0.28783410  0.92177942  0.38760028    -0.72000
C1240       C  0.29353165  0.89156427  0.37546454     0.98700
C1241       C  0.40826517  0.89923731  0.47249135     0.95100
Al1242     Al  0.33937850  0.90744211  0.50644285     1.55600
O1243       O  0.35832258  0.92133073  0.37983344    -0.76600
C1244       C  0.26776084  0.90982363  0.49754142     0.99300
C1245       C  0.34079129  0.83772595  0.48418949     0.94200
O1246       O  0.35379866  0.84663855  0.45122021    -0.81900
N1247       N  0.37546384  0.97080215  0.34816994    -0.03100
C1248       C  0.37334277  0.00381031  0.66911202    -0.00500
C1249       C  0.40037791  0.01036027  0.64316271    -0.23300
C1250       C  0.41877084  0.98067163  0.63876294    -0.23600
C1251       C  0.40264967  0.95638139  0.66194411    -0.00600
H1252       H  0.40323004  0.53248854  0.62403701     0.13200
H1253       H  0.43842998  0.97608744  0.61647157     0.13300
N1254       N  0.28182439  0.88037697  0.33665384    -0.03100
C1255       C  0.25028253  0.88411816  0.65350448    -0.00500
C1256       C  0.24651170  0.86205139  0.62140963    -0.23300
C1257       C  0.27766930  0.84703022  0.61506022    -0.23600
C1258       C  0.29927326  0.85915099  0.64465400    -0.00600
H1259       H  0.22380003  0.85808370  0.60352351     0.13200
H1260       H  0.28446001  0.83088466  0.58984991     0.13300
O1261       O  0.37957202  0.56826858  0.56272346    -0.81400
C1262       C  0.27198256  0.59836469  0.66327304     0.98000
O1263       O  0.27334874  0.56959443  0.64545068    -0.70500
O1264       O  0.28213382  0.59296274  0.57001747    -0.74100
Al1265     Al  0.30516274  0.55893058  0.60222921     1.49000
C1266       C  0.29801555  0.61126548  0.54452398     0.93200
O1267       O  0.35032799  0.65295358  0.60403669    -0.80300
O1268       O  0.39142343  0.58363217  0.34045162    -0.73900
Al1269     Al  0.36385727  0.60931761  0.58620705     1.90100
O1270       O  0.35408123  0.64379092  0.33495395    -0.72900
O1271       O  0.33455688  0.54851228  0.35402101    -0.72800
O1272       O  0.29846094  0.61044423  0.34563420    -0.78400
O1273       O  0.32711459  0.52228879  0.63007228    -0.76600
O1274       O  0.33764547  0.58798589  0.62039556    -1.12800
O1275       O  0.32950124  0.54390727  0.55420575    -0.72000
C1276       C  0.35974660  0.54966056  0.54213922     0.98700
C1277       C  0.35202376  0.66430533  0.63922001     0.95100
Al1278     Al  0.34377650  0.59538151  0.33977639     1.55600
O1279       O  0.33000504  0.61439274  0.54647253    -0.76600
C1280       C  0.34135983  0.52377451  0.66411374     0.99300
C1281       C  0.41348733  0.59691057  0.65089804     0.94200
O1282       O  0.40461650  0.60999436  0.61796925    -0.81900
N1283       N  0.28056027  0.63158156  0.51488254    -0.03100
C1284       C  0.24751686  0.62954958  0.50259659    -0.00500
C1285       C  0.24103103  0.65663343  0.47671931    -0.23300
C1286       C  0.27079481  0.67497833  0.47226919    -0.23600
C1287       C  0.29505292  0.65877629  0.49535043    -0.00600
H1288       H  0.21888524  0.65953883  0.45764257     0.13200
H1289       H  0.27542536  0.69466352  0.45000769     0.13300
N1290       N  0.37100732  0.53795916  0.50336998    -0.03100
C1291       C  0.36735583  0.50638197  0.48693263    -0.00500
C1292       C  0.38945287  0.50267825  0.45486405    -0.23300
C1293       C  0.40444395  0.53389182  0.44851631    -0.23600
C1294       C  0.39225554  0.55546825  0.47807026    -0.00600
H1295       H  0.39343298  0.97997051  0.43696617     0.13200
H1296       H  0.42060805  0.54073937  0.42332431     0.13300
O1297       O  0.36562886  0.68916379  0.39605651    -0.81400
C1298       C  0.47321702  0.65906642  0.49660653     0.98000
O1299       O  0.47185200  0.68783617  0.47878293    -0.70500
O1300       O  0.46306663  0.66446715  0.40335097    -0.74100
Al1301     Al  0.44003847  0.69850050  0.43556167     1.49000
C1302       C  0.44718482  0.64616497  0.37785750     0.93200
O1303       O  0.39487258  0.60447893  0.43737009    -0.80300
O1304       O  0.35377618  0.67380139  0.50711786    -0.73900
Al1305     Al  0.38134310  0.64811470  0.41954033     1.90100
O1306       O  0.39111808  0.61364199  0.50162062    -0.72900
O1307       O  0.41064346  0.70892053  0.52068691    -0.72800
O1308       O  0.44673798  0.64698796  0.51230101    -0.78400
O1309       O  0.41808769  0.73514337  0.46340451    -0.76600
O1310       O  0.40755487  0.66944633  0.45372852    -1.12800
O1311       O  0.41570038  0.71352404  0.38753791    -0.72000
C1312       C  0.38545475  0.70777157  0.37547188     0.98700
C1313       C  0.39317680  0.59312734  0.47255357     0.95100
Al1314     Al  0.40142304  0.66205136  0.50644282     1.55600
O1315       O  0.41519518  0.64303932  0.37980530    -0.76600
C1316       C  0.40384204  0.73365854  0.49744607     0.99300
C1317       C  0.33171259  0.66052191  0.48423181     0.94200
O1318       O  0.34058380  0.64743784  0.45130321    -0.81900
N1319       N  0.46464008  0.62584862  0.34821623    -0.03100
C1320       C  0.49768350  0.62788086  0.66926356    -0.00500
C1321       C  0.50416919  0.60079831  0.64338447    -0.23300
C1322       C  0.47440507  0.58245428  0.63893303    -0.23600
C1323       C  0.45014704  0.59865538  0.66201596    -0.00600
H1324       H  0.02631487  0.59789344  0.62430765     0.13200
H1325       H  0.46977433  0.56277091  0.61667021     0.13300
N1326       N  0.37419436  0.71947327  0.33670258    -0.03100
C1327       C  0.37784578  0.75105062  0.65359875    -0.00500
C1328       C  0.35574923  0.75475439  0.62153027    -0.23300
C1329       C  0.34075826  0.72354094  0.61518242    -0.23600
C1330       C  0.35294619  0.70196439  0.64473622    -0.00600
H1331       H  0.35176863  0.77746222  0.60363267     0.13200
H1332       H  0.32459456  0.71669377  0.58999035     0.13300
O1333       O  0.06208200  0.62171841  0.56269462    -0.81400
C1334       C  0.09242338  0.72924445  0.66335652     0.98000
O1335       O  0.06363625  0.72784483  0.64557732    -0.70500
O1336       O  0.08697048  0.71916076  0.57010216    -0.74100
Al1337     Al  0.05292368  0.69606752  0.60232107     1.49000
C1338       C  0.10521344  0.70331170  0.54456431     0.93200
O1339       O  0.14688814  0.65093850  0.60399375    -0.80300
O1340       O  0.07757059  0.60975709  0.34046562    -0.73900
Al1341     Al  0.10318919  0.63742507  0.58618605     1.90100
O1342       O  0.13776073  0.64718549  0.33491387    -0.72900
O1343       O  0.04254109  0.66660701  0.35409146    -0.72800
O1344       O  0.10451140  0.70276930  0.34563703    -0.78400
O1345       O  0.01627933  0.67405804  0.63016933    -0.76600
O1346       O  0.08193980  0.66359321  0.62042165    -1.12800
O1347       O  0.03783359  0.67178255  0.55427379    -0.72000
C1348       C  0.04352889  0.64156686  0.54213767     0.98700
C1349       C  0.15826262  0.64923119  0.63916601     0.95100
Al1350     Al  0.08937711  0.65743938  0.33978484     1.55600
O1351       O  0.10832223  0.67132907  0.54650917    -0.76600
C1352       C  0.01776083  0.65982326  0.66421270     0.99300
C1353       C  0.09078712  0.58772258  0.65086503     0.94200
O1354       O  0.10379190  0.59663463  0.61789409    -0.81900
N1355       N  0.12546421  0.72080144  0.51484678    -0.01500
C1356       C  0.12334204  0.75380997  0.50245682    -0.00500
C1357       C  0.15037620  0.76036078  0.47650639    -0.23300
C1358       C  0.16876933  0.73067246  0.47210465    -0.23600
C1359       C  0.15264939  0.70638145  0.49528583    -0.00600
H1360       H  0.15322740  0.78248986  0.45738076     0.13200
H1361       H  0.18842735  0.72608886  0.44981218     0.13300
N1362       N  0.03182320  0.63038034  0.50332541    -0.03100
C1363       C  0.00028178  0.63411939  0.48684024    -0.00500
C1364       C  0.99651280  0.61205070  0.45474682    -0.23300
C1365       C  0.02767044  0.59702934  0.44840110    -0.23600
C1366       C  0.04927294  0.60915244  0.47799498    -0.00600
H1367       H  0.47380187  0.60808271  0.43685854     0.13200
H1368       H  0.03446281  0.58088209  0.42319208     0.13300
O1369       O  0.12957315  0.81826937  0.39606965    -0.81400
C1370       C  0.02198136  0.84836655  0.49660982     0.98000
O1371       O  0.02334728  0.81959480  0.47879076    -0.70500
O1372       O  0.03213376  0.84295850  0.40335697    -0.74100
Al1373     Al  0.05516250  0.80892835  0.43557218     1.49000
C1374       C  0.04801615  0.86126170  0.37786471     0.93200
O1375       O  0.10032338  0.90295306  0.43738314    -0.80300
O1376       O  0.14142147  0.83363030  0.50713078    -0.73900
Al1377     Al  0.11385589  0.85931756  0.41955292     1.90100
O1378       O  0.10407941  0.89378959  0.50163341    -0.72900
O1379       O  0.08455399  0.79851087  0.52069929    -0.72800
O1380       O  0.04845839  0.86044372  0.51230985    -0.78400
O1381       O  0.07711291  0.77228691  0.46341783    -0.76600
O1382       O  0.08764430  0.83798436  0.45373993    -1.12800
O1383       O  0.07950404  0.79390400  0.38755151    -0.72000
C1384       C  0.10974936  0.79965913  0.37548573     0.98700
C1385       C  0.10201980  0.91430458  0.47256672     0.95100
Al1386     Al  0.09377425  0.84538008  0.50645469     1.55600
O1387       O  0.08000530  0.86439077  0.37981659    -0.76600
C1388       C  0.09135817  0.77377316  0.49745905     0.99300
C1389       C  0.16348521  0.84691054  0.48424473     0.94200
O1390       O  0.15461408  0.85999599  0.45131692    -0.81900
N1391       N  0.03056239  0.88157846  0.34822264    -0.03100
C1392       C  0.99751948  0.87954875  0.66926686    -0.00500
C1393       C  0.99103549  0.90663628  0.64339438    -0.23300
C1394       C  0.02079973  0.92498157  0.63895066    -0.23600
C1395       C  0.04505625  0.90877572  0.66203050    -0.00600
H1396       H  0.46889087  0.90954404  0.62431502     0.13200
H1397       H  0.02543200  0.94466957  0.61669356     0.13300
N1398       N  0.12101178  0.78795693  0.33671740    -0.03100
C1399       C  0.11735994  0.75637967  0.65361278    -0.00500
C1400       C  0.13945736  0.75267620  0.62154446    -0.23300
C1401       C  0.15444918  0.78388963  0.61519746    -0.23600
C1402       C  0.14226064  0.80546613  0.64475130    -0.00600
H1403       H  0.14343676  0.72996870  0.60364532     0.13200
H1404       H  0.17061335  0.79073724  0.59000519     0.13300
O1405       O  0.43311445  0.88571642  0.56268627    -0.81400
C1406       C  0.40278020  0.77818647  0.66334471     0.98000
O1407       O  0.43156768  0.77958845  0.64556607    -0.70500
O1408       O  0.40823383  0.78827207  0.57008965    -0.74100
Al1409     Al  0.44227874  0.81136724  0.60231099     1.49000
C1410       C  0.38998922  0.80412095  0.54455326     0.93200
O1411       O  0.34831045  0.85648907  0.60398669    -0.80300
O1412       O  0.41762838  0.89767309  0.34045665    -0.73900
Al1413     Al  0.39200861  0.87000624  0.58617817     1.90100
O1414       O  0.35743868  0.86024348  0.33490639    -0.72900
O1415       O  0.45265851  0.84082307  0.35408391    -0.72800
O1416       O  0.39069007  0.80466021  0.34562662    -0.78400
O1417       O  0.47892124  0.83337921  0.63016078    -0.76600
O1418       O  0.41326024  0.84383877  0.62041253    -1.12800
O1419       O  0.45736723  0.83565423  0.55426587    -0.72000
C1420       C  0.45166947  0.86586919  0.54212977     0.98700
C1421       C  0.33693635  0.85819642  0.63915935     0.95100
Al1422     Al  0.40582257  0.84999061  0.33977612     1.55600
O1423       O  0.38687800  0.83610315  0.54650047    -0.76600
C1424       C  0.47744014  0.84760847  0.66420748     0.99300
C1425       C  0.40441106  0.91970768  0.65085690     0.94200
O1426       O  0.39140405  0.91079559  0.61788746    -0.81900
N1427       N  0.36973855  0.78663164  0.51483537    -0.03100
C1428       C  0.37185966  0.75362356  0.50244384    -0.00500
C1429       C  0.34482512  0.74707370  0.47649430    -0.23300
C1430       C  0.32643253  0.77676238  0.47209461    -0.23600
C1431       C  0.34255313  0.80105235  0.49527617    -0.00600
H1432       H  0.34197298  0.72494508  0.45736850     0.13200
H1433       H  0.30677425  0.78134670  0.44980319     0.13300
N1434       N  0.46337687  0.87705607  0.50331876    -0.03100
C1435       C  0.49491899  0.87331428  0.48683634    -0.00500
C1436       C  0.49869040  0.89538001  0.45474063    -0.23300
C1437       C  0.46753298  0.91040107  0.44839063    -0.23600
C1438       C  0.44592842  0.89828153  0.47798502    -0.00600
H1439       H  0.02140259  0.89934748  0.43685486     0.13200
H1440       H  0.46074280  0.92654621  0.42317986     0.13300
O1441       O  0.18311588  0.63571218  0.72935960    -0.81400
C1442       C  0.15277618  0.52818576  0.83002360     0.98000
O1443       O  0.18156304  0.52958582  0.81224328    -0.70500
O1444       O  0.15822853  0.53826987  0.73676839    -0.74100
Al1445     Al  0.19227524  0.56136345  0.76898693     1.49000
C1446       C  0.13998506  0.55411883  0.71123119     0.93200
O1447       O  0.09831021  0.60649206  0.77066208    -0.80300
O1448       O  0.16762756  0.64767313  0.84046533    -0.73900
Al1449     Al  0.14200899  0.62000543  0.75285294     1.90100
O1450       O  0.10743801  0.61024358  0.83491533    -0.72900
O1451       O  0.20265802  0.59082397  0.85409080    -0.72800
O1452       O  0.14068818  0.55466071  0.84563803    -0.78400
O1453       O  0.22891948  0.58337358  0.79683459    -0.76600
O1454       O  0.16325888  0.59383732  0.78708814    -1.12800
O1455       O  0.20736494  0.58564836  0.72093942    -0.72000
C1456       C  0.20166930  0.61586366  0.70880272     0.98700
C1457       C  0.08693596  0.60819819  0.80583468     0.95100
Al1458     Al  0.15582176  0.59999078  0.83978499     1.55600
O1459       O  0.13687559  0.58610133  0.71317655    -0.76600
C1460       C  0.22743854  0.59760761  0.83087846     0.99300
C1461       C  0.15441154  0.66970772  0.81753143     0.94200
O1462       O  0.14140679  0.66079581  0.78456072    -0.81900
N1463       N  0.11973478  0.53662907  0.68151356    -0.03100
C1464       C  0.12185756  0.50362077  0.00245656    -0.00500
C1465       C  0.09482351  0.49706973  0.97650660    -0.23300
C1466       C  0.07642994  0.52675782  0.97210538    -0.23600
C1467       C  0.09254957  0.55104896  0.99528625    -0.00600
H1468       H  0.09197303  0.97494079  0.95738099     0.13200
H1469       H  0.05677164  0.53134111  0.94981339     0.13300
N1470       N  0.21337547  0.62704955  0.66999019    -0.03100
C1471       C  0.24491726  0.62331068  0.98683874    -0.00500
C1472       C  0.24868624  0.64537813  0.95474410    -0.23300
C1473       C  0.21752822  0.66039827  0.94839719    -0.23600
C1474       C  0.19592560  0.64827605  0.97799180    -0.00600
H1475       H  0.27139721  0.64934690  0.93685646     0.13200
H1476       H  0.21073610  0.67654418  0.92318751     0.13300
O1477       O  0.11562712  0.93916011  0.89606955    -0.81400
C1478       C  0.22321945  0.90906549  0.99660996     0.98000
O1479       O  0.22185327  0.93783657  0.97878929    -0.70500
O1480       O  0.21306664  0.91447169  0.90335631    -0.74100
Al1481     Al  0.19003771  0.94850205  0.93557116     1.49000
C1482       C  0.19718449  0.89616836  0.87786440     0.93200
O1483       O  0.14487754  0.85447691  0.93738376    -0.80300
O1484       O  0.10377961  0.92380013  0.67379801    -0.73900
Al1485     Al  0.13134477  0.89811221  0.91955331     1.90100
O1486       O  0.14112202  0.86364065  0.66830062    -0.72900
O1487       O  0.16064583  0.95892010  0.68736531    -0.72800
O1488       O  0.19674220  0.89698786  0.67897647    -0.78400
O1489       O  0.16808673  0.98514359  0.96341663    -0.76600
O1490       O  0.15755636  0.91944583  0.95373975    -1.12800
O1491       O  0.16569609  0.96352573  0.88755082    -0.72000
C1492       C  0.13545090  0.95777047  0.87548537     0.98700
C1493       C  0.14318145  0.84312550  0.97256742     0.95100
Al1494     Al  0.15142645  0.91205058  0.67312146     1.55600
O1495       O  0.16519532  0.89303902  0.87981658    -0.76600
C1496       C  0.15384168  0.98365768  0.99745835     0.99300
C1497       C  0.08171595  0.91051996  0.98424577     0.94200
O1498       O  0.09058683  0.89743379  0.95131817    -0.81900
N1499       N  0.21463870  0.87585228  0.84822179    -0.03100
C1500       C  0.24768179  0.87788278  0.83593270    -0.00500
C1501       C  0.25416634  0.85079599  0.81005921    -0.23300
C1502       C  0.22440229  0.83245057  0.80561478    -0.23600
C1503       C  0.20014518  0.84865540  0.82869540    -0.00600
H1504       H  0.27631145  0.84788874  0.79098028     0.13200
H1505       H  0.21977031  0.81276338  0.78335664     0.13300
N1506       N  0.12418853  0.96947301  0.83671730    -0.03100
C1507       C  0.12783971  0.00105058  0.82028027    -0.00500
C1508       C  0.10574256  0.00475420  0.78821225    -0.23300
C1509       C  0.09075158  0.97354050  0.78186459    -0.23600
C1510       C  0.10294048  0.95196378  0.81141781    -0.00600
H1511       H  0.10176261  0.52746155  0.77031348     0.13200
H1512       H  0.07458815  0.96669328  0.75667280     0.13300
O1513       O  0.31208693  0.87171725  0.72935405    -0.81400
C1514       C  0.34242101  0.97924637  0.83001222     0.98000
O1515       O  0.31363362  0.97784466  0.81223392    -0.70500
O1516       O  0.33696777  0.96916172  0.73675748    -0.74100
Al1517     Al  0.30292252  0.94606637  0.76897877     1.49000
C1518       C  0.35521217  0.95331293  0.71122053     0.93200
O1519       O  0.39689097  0.90094591  0.77065217    -0.80300
O1520       O  0.32757291  0.85975981  0.84045605    -0.73900
Al1521     Al  0.35319287  0.88742796  0.75284467     1.90100
O1522       O  0.38776271  0.89718950  0.83490534    -0.72900
O1523       O  0.29254227  0.91660883  0.85408461    -0.72800
O1524       O  0.35451072  0.95277255  0.84562735    -0.78400
O1525       O  0.26627973  0.92405417  0.79682878    -0.76600
O1526       O  0.33194103  0.91359487  0.78707963    -1.12800
O1527       O  0.28783411  0.92177948  0.72093365    -0.72000
C1528       C  0.29353164  0.89156428  0.70879786     0.98700
C1529       C  0.40826515  0.89923736  0.80582457     0.95100
Al1530     Al  0.33937846  0.90744210  0.83977617     1.55600
O1531       O  0.35832255  0.92133069  0.71316682    -0.76600
C1532       C  0.26776089  0.90982365  0.83087477     0.99300
C1533       C  0.34079124  0.83772594  0.81752276     0.94200
O1534       O  0.35379866  0.84663855  0.78455348    -0.81900
N1535       N  0.37546389  0.97080219  0.68150326    -0.03100
C1536       C  0.37334279  0.00381034  0.00244542    -0.00500
C1537       C  0.40037786  0.01036028  0.97649604    -0.23300
C1538       C  0.41877077  0.98067168  0.97209626    -0.23600
C1539       C  0.40264960  0.95638143  0.99527732    -0.00600
H1540       H  0.40322988  0.53248895  0.95737006     0.13200
H1541       H  0.43842982  0.97608739  0.94980480     0.13300
N1542       N  0.28182440  0.88037700  0.66998712    -0.03100
C1543       C  0.25028252  0.88411811  0.98683786    -0.00500
C1544       C  0.24651178  0.86205150  0.95474290    -0.23300
C1545       C  0.27766937  0.84703035  0.94839347    -0.23600
C1546       C  0.29927324  0.85915096  0.97798736    -0.00600
H1547       H  0.22380017  0.85808387  0.93685679     0.13200
H1548       H  0.28446012  0.83088487  0.92318312     0.13300
O1549       O  0.37957205  0.56826858  0.89605676    -0.81400
C1550       C  0.27198251  0.59836473  0.99660650     0.98000
O1551       O  0.27334877  0.56959453  0.97878418    -0.70500
O1552       O  0.28213376  0.59296270  0.90335086    -0.74100
Al1553     Al  0.30516272  0.55893058  0.93556259     1.49000
C1554       C  0.29801547  0.61126555  0.87785742     0.93200
O1555       O  0.35032801  0.65295363  0.93737009    -0.80300
O1556       O  0.39142340  0.58363209  0.67378502    -0.73900
Al1557     Al  0.36385726  0.60931758  0.91954035     1.90100
O1558       O  0.35408126  0.64379080  0.66828725    -0.72900
O1559       O  0.33455679  0.54851223  0.68735443    -0.72800
O1560       O  0.29846096  0.61044416  0.67896746    -0.78400
O1561       O  0.32711470  0.52228874  0.96340571    -0.76600
O1562       O  0.33764547  0.58798584  0.95372882    -1.12800
O1563       O  0.32950116  0.54390721  0.88753921    -0.72000
C1564       C  0.35974651  0.54966067  0.87547253     0.98700
C1565       C  0.35202372  0.66430540  0.97255342     0.95100
Al1566     Al  0.34377649  0.59538147  0.67310982     1.55600
O1567       O  0.33000495  0.61439279  0.87980579    -0.76600
C1568       C  0.34135987  0.52377449  0.99744721     0.99300
C1569       C  0.41348733  0.59691069  0.98423135     0.94200
O1570       O  0.40461649  0.60999428  0.95130250    -0.81900
N1571       N  0.28056030  0.63158149  0.84821595    -0.03100
C1572       C  0.24751692  0.62954950  0.83593001    -0.00500
C1573       C  0.24103097  0.65663331  0.81005283    -0.23300
C1574       C  0.27079478  0.67497820  0.80560250    -0.23600
C1575       C  0.29505290  0.65877629  0.82868401    -0.00600
H1576       H  0.21888534  0.65953837  0.79097584     0.13200
H1577       H  0.27542527  0.69466300  0.78334098     0.13300
N1578       N  0.37100727  0.53795915  0.83670337    -0.03100
C1579       C  0.36735570  0.50638201  0.82026602    -0.00500
C1580       C  0.38945279  0.50267833  0.78819752    -0.23300
C1581       C  0.40444398  0.53389193  0.78184973    -0.23600
C1582       C  0.39225541  0.55546829  0.81140362    -0.00600
H1583       H  0.39343305  0.97997105  0.77029949     0.13200
H1584       H  0.42060767  0.54073919  0.75665783     0.13300
O1585       O  0.36562885  0.68916386  0.72938984    -0.81400
C1586       C  0.47321704  0.65906640  0.82993989     0.98000
O1587       O  0.47185200  0.68783614  0.81211641    -0.70500
O1588       O  0.46306662  0.66446719  0.73668432    -0.74100
Al1589     Al  0.44003850  0.69850051  0.76889496     1.49000
C1590       C  0.44718480  0.64616500  0.71119092     0.93200
O1591       O  0.39487249  0.60447891  0.77070344    -0.80300
O1592       O  0.35377614  0.67380139  0.84045125    -0.73900
Al1593     Al  0.38134314  0.64811475  0.75287367     1.90100
O1594       O  0.39111811  0.61364198  0.83495384    -0.72900
O1595       O  0.41064351  0.70892061  0.85402019    -0.72800
O1596       O  0.44673800  0.64698810  0.84563438    -0.78400
O1597       O  0.41808774  0.73514339  0.79673771    -0.76600
O1598       O  0.40755485  0.66944648  0.78706177    -1.12800
O1599       O  0.41570038  0.71352402  0.72087125    -0.72000
C1600       C  0.38545476  0.70777150  0.70880513     0.98700
C1601       C  0.39317676  0.59312732  0.80588685     0.95100
Al1602     Al  0.40142305  0.66205143  0.83977606     1.55600
O1603       O  0.41519517  0.64303939  0.71313860    -0.76600
C1604       C  0.40384209  0.73365858  0.83077930     0.99300
C1605       C  0.33171256  0.66052179  0.81756525     0.94200
O1606       O  0.34058373  0.64743784  0.78463651    -0.81900
N1607       N  0.46464002  0.62584875  0.68154961    -0.03100
C1608       C  0.49768352  0.62788079  0.00259663    -0.00500
C1609       C  0.50416922  0.60079822  0.97671756    -0.23300
C1610       C  0.47440512  0.58245423  0.97226611    -0.23600
C1611       C  0.45014704  0.59865525  0.99534903    -0.00600
H1612       H  0.02631548  0.59789366  0.95764011     0.13200
H1613       H  0.46977430  0.56277045  0.95000325     0.13300
N1614       N  0.37419439  0.71947325  0.67003590    -0.03100
C1615       C  0.37784576  0.75105063  0.98693223    -0.00500
C1616       C  0.35574925  0.75475444  0.95486364    -0.23300
C1617       C  0.34075824  0.72354102  0.94851583    -0.23600
C1618       C  0.35294623  0.70196446  0.97806967    -0.00600
H1619       H  0.35176858  0.77746226  0.93696605     0.13200
H1620       H  0.32459457  0.71669393  0.92332379     0.13300
O1621       O  0.06208207  0.62171841  0.89602798    -0.81400
C1622       C  0.09242338  0.72924452  0.99668996     0.98000
O1623       O  0.06363634  0.72784476  0.97891062    -0.70500
O1624       O  0.08697055  0.71916083  0.90343548    -0.74100
Al1625     Al  0.05292370  0.69606746  0.93565441     1.49000
C1626       C  0.10521338  0.70331170  0.87789758     0.93200
O1627       O  0.14688806  0.65093861  0.93732706    -0.80300
O1628       O  0.07757068  0.60975711  0.67379888    -0.73900
Al1629     Al  0.10318919  0.63742507  0.91951941     1.90100
O1630       O  0.13776073  0.64718549  0.66824731    -0.72900
O1631       O  0.04254116  0.66660703  0.68742470    -0.72800
O1632       O  0.10451135  0.70276928  0.67897042    -0.78400
O1633       O  0.01627933  0.67405804  0.96350272    -0.76600
O1634       O  0.08193977  0.66359316  0.95375491    -1.12800
O1635       O  0.03783365  0.67178244  0.88760711    -0.72000
C1636       C  0.04352896  0.64156682  0.87547100     0.98700
C1637       C  0.15826256  0.64923121  0.97249925     0.95100
Al1638     Al  0.08937714  0.65743937  0.67311821     1.55600
O1639       O  0.10832215  0.67132904  0.87984248    -0.76600
C1640       C  0.01776089  0.65982328  0.99754608     0.99300
C1641       C  0.09078709  0.58772262  0.98419847     0.94200
O1642       O  0.10379188  0.59663467  0.95122753    -0.81900
N1643       N  0.12546421  0.72080137  0.84818012    -0.01500
C1644       C  0.12334189  0.75380983  0.83579026    -0.00500
C1645       C  0.15037609  0.76036074  0.80984006    -0.23300
C1646       C  0.16876928  0.73067248  0.80543808    -0.23600
C1647       C  0.15264935  0.70638139  0.82861910    -0.00600
H1648       H  0.15322704  0.78248964  0.79071473     0.13200
H1649       H  0.18842738  0.72608940  0.78314557     0.13300
N1650       N  0.03182322  0.63038042  0.83665881    -0.03100
C1651       C  0.00028177  0.63411945  0.82017373    -0.00500
C1652       C  0.99651267  0.61205089  0.78808043    -0.23300
C1653       C  0.02767041  0.59702947  0.78173471    -0.23600
C1654       C  0.04927291  0.60915254  0.81132854    -0.00600
H1655       H  0.47380196  0.60808283  0.77019226     0.13200
H1656       H  0.03446262  0.58088271  0.75652608     0.13300
O1657       O  0.12957318  0.81826931  0.72940283    -0.81400
C1658       C  0.02198136  0.84836644  0.82994315     0.98000
O1659       O  0.02334726  0.81959476  0.81212389    -0.70500
O1660       O  0.03213377  0.84295854  0.73669027    -0.74100
Al1661     Al  0.05516253  0.80892832  0.76890542     1.49000
C1662       C  0.04801614  0.86126171  0.71119802     0.93200
O1663       O  0.10032342  0.90295311  0.77071658    -0.80300
O1664       O  0.14142144  0.83363036  0.84046399    -0.73900
Al1665     Al  0.11385591  0.85931753  0.75288621     1.90100
O1666       O  0.10407940  0.89378953  0.83496669    -0.72900
O1667       O  0.08455397  0.79851094  0.85403264    -0.72800
O1668       O  0.04845843  0.86044373  0.84564308    -0.78400
O1669       O  0.07711300  0.77228684  0.79675105    -0.76600
O1670       O  0.08764429  0.83798430  0.78707317    -1.12800
O1671       O  0.07950405  0.79390414  0.72088481    -0.72000
C1672       C  0.10974936  0.79965914  0.70881892     0.98700
C1673       C  0.10201985  0.91430457  0.80590012     0.95100
Al1674     Al  0.09377424  0.84538011  0.83978794     1.55600
O1675       O  0.08000530  0.86439076  0.71314995    -0.76600
C1676       C  0.09135802  0.77377308  0.83079245     0.99300
C1677       C  0.16348524  0.84691045  0.81757797     0.94200
O1678       O  0.15461406  0.85999601  0.78465030    -0.81900
N1679       N  0.03056232  0.88157850  0.68155601    -0.03100
C1680       C  0.99751949  0.87954872  0.00260009    -0.00500
C1681       C  0.99103550  0.90663637  0.97672764    -0.23300
C1682       C  0.02079976  0.92498163  0.97228395    -0.23600
C1683       C  0.04505628  0.90877570  0.99536383    -0.00600
H1684       H  0.46889068  0.90954443  0.95764836     0.13200
H1685       H  0.02543208  0.94466908  0.95002626     0.13300
N1686       N  0.12101189  0.78795683  0.67005064    -0.03100
C1687       C  0.11736000  0.75637965  0.98694622    -0.00500
C1688       C  0.13945735  0.75267616  0.95487782    -0.23300
C1689       C  0.15444915  0.78388963  0.94853099    -0.23600
C1690       C  0.14226053  0.80546613  0.97808477    -0.00600
H1691       H  0.14343688  0.72996878  0.93697848     0.13200
H1692       H  0.17061337  0.79073727  0.92333918     0.13300
O1693       O  0.43311449  0.88571649  0.89601950    -0.81400
C1694       C  0.40278021  0.77818645  0.99667807     0.98000
O1695       O  0.43156773  0.77958847  0.97889948    -0.70500
O1696       O  0.40823381  0.78827207  0.90342304    -0.74100
Al1697     Al  0.44227873  0.81136727  0.93564426     1.49000
C1698       C  0.38998918  0.80412096  0.87788668     0.93200
O1699       O  0.34831049  0.85648905  0.93731994    -0.80300
O1700       O  0.41762842  0.89767322  0.67379002    -0.73900
Al1701     Al  0.39200862  0.87000622  0.91951139     1.90100
O1702       O  0.35743867  0.86024350  0.66823968    -0.72900
O1703       O  0.45265849  0.84082309  0.68741722    -0.72800
O1704       O  0.39069011  0.80466016  0.67895994    -0.78400
O1705       O  0.47892130  0.83337920  0.96349404    -0.76600
O1706       O  0.41326023  0.84383875  0.95374577    -1.12800
O1707       O  0.45736708  0.83565425  0.88759923    -0.72000
C1708       C  0.45166949  0.86586925  0.87546313     0.98700
C1709       C  0.33693637  0.85819628  0.97249265     0.95100
Al1710     Al  0.40582257  0.84999065  0.67310936     1.55600
O1711       O  0.38687807  0.83610316  0.87983381    -0.76600
C1712       C  0.47744016  0.84760845  0.99754077     0.99300
C1713       C  0.40441103  0.91970770  0.98419013     0.94200
O1714       O  0.39140392  0.91079560  0.95122074    -0.81900
N1715       N  0.36973861  0.78663167  0.84816867    -0.03100
C1716       C  0.37185974  0.75362360  0.83577721    -0.00500
C1717       C  0.34482517  0.74707364  0.80982773    -0.23300
C1718       C  0.32643242  0.77676231  0.80542798    -0.23600
C1719       C  0.34255313  0.80105231  0.82860944    -0.00600
H1720       H  0.34197335  0.72494506  0.79070205     0.13200
H1721       H  0.30677396  0.78134664  0.78313671     0.13300
N1722       N  0.46337695  0.87705607  0.83665211    -0.03100
C1723       C  0.49491903  0.87331421  0.82016956    -0.00500
C1724       C  0.49869043  0.89538006  0.78807382    -0.23300
C1725       C  0.46753299  0.91040114  0.78172377    -0.23600
C1726       C  0.44592845  0.89828148  0.81131827    -0.00600
H1727       H  0.02140266  0.89934759  0.77018766     0.13200
H1728       H  0.46074271  0.92654621  0.75651315     0.13300
O1729       O  0.68311588  0.13571227  0.06269283    -0.81400
C1730       C  0.65277613  0.02818581  0.16335675     0.98000
O1731       O  0.68156301  0.02958593  0.14557656    -0.70500
O1732       O  0.65822855  0.03826991  0.07010162    -0.74100
Al1733     Al  0.69227520  0.06136352  0.10232021     1.49000
C1734       C  0.63998517  0.05411887  0.04456438     0.93200
O1735       O  0.59831021  0.10649217  0.10399545    -0.80300
O1736       O  0.66762747  0.14767319  0.17379867    -0.73900
Al1737     Al  0.64200893  0.12000553  0.08618624     1.90100
O1738       O  0.60743800  0.11024350  0.16824875    -0.72900
O1739       O  0.70265808  0.09082400  0.18742416    -0.72800
O1740       O  0.64068827  0.05466068  0.17897139    -0.78400
O1741       O  0.72891944  0.08337362  0.13016775    -0.76600
O1742       O  0.66325873  0.09383739  0.12042140    -1.12800
O1743       O  0.70736497  0.08564836  0.05427270    -0.72000
C1744       C  0.70166924  0.11586368  0.04213596     0.98700
C1745       C  0.58693597  0.10819831  0.13916806     0.95100
Al1746     Al  0.65582174  0.09999082  0.17311831     1.55600
O1747       O  0.63687550  0.08610135  0.04651001    -0.76600
C1748       C  0.72743853  0.09760761  0.16421170     0.99300
C1749       C  0.65441147  0.16970777  0.15086480     0.94200
O1750       O  0.64140680  0.16079589  0.11789404    -0.81900
N1751       N  0.61973482  0.03662910  0.01484684    -0.03100
C1752       C  0.62185753  0.00362064  0.33578999    -0.00500
C1753       C  0.59482349  0.99706963  0.30984006    -0.23300
C1754       C  0.57642995  0.02675772  0.30543877    -0.23600
C1755       C  0.59254953  0.05104888  0.32861969    -0.00600
H1756       H  0.59197256  0.47494076  0.29071424     0.13200
H1757       H  0.55677169  0.03134091  0.28314685     0.13300
N1758       N  0.71337542  0.12704969  0.00332351    -0.03100
C1759       C  0.74491746  0.12331080  0.32017201    -0.00500
C1760       C  0.74868642  0.14537812  0.28807734    -0.23300
C1761       C  0.71752841  0.16039814  0.28173046    -0.23600
C1762       C  0.69592570  0.14827597  0.31132524    -0.00600
H1763       H  0.77139781  0.14934708  0.27018910     0.13200
H1764       H  0.71073624  0.17654396  0.25652129     0.13300
O1765       O  0.61562716  0.43916009  0.22940289    -0.81400
C1766       C  0.72321948  0.40906546  0.32994327     0.98000
O1767       O  0.72185323  0.43783655  0.31212269    -0.70500
O1768       O  0.71306662  0.41447174  0.23668968    -0.74100
Al1769     Al  0.69003775  0.44850212  0.26890449     1.49000
C1770       C  0.69718451  0.39616830  0.21119780     0.93200
O1771       O  0.64487760  0.35447690  0.27071712    -0.80300
O1772       O  0.60377962  0.42380010  0.00713129    -0.73900
Al1773     Al  0.63134479  0.39811218  0.25288664     1.90100
O1774       O  0.64112202  0.36364065  0.00163396    -0.72900
O1775       O  0.66064586  0.45892010  0.02069878    -0.72800
O1776       O  0.69674231  0.39698781  0.01230985    -0.78400
O1777       O  0.66808668  0.48514361  0.29674993    -0.76600
O1778       O  0.65755637  0.41944587  0.28707307    -1.12800
O1779       O  0.66569621  0.46352577  0.22088405    -0.72000
C1780       C  0.63545096  0.45777059  0.20881868     0.98700
C1781       C  0.64318142  0.34312553  0.30590076     0.95100
Al1782     Al  0.65142645  0.41205060  0.00645473     1.55600
O1783       O  0.66519541  0.39303905  0.21314995    -0.76600
C1784       C  0.65384169  0.48365767  0.33079172     0.99300
C1785       C  0.58171591  0.41051985  0.31757904     0.94200
O1786       O  0.59058683  0.39743386  0.28465143    -0.81900
N1787       N  0.71463863  0.37585230  0.18155508    -0.03100
C1788       C  0.74768166  0.37788274  0.16926614    -0.00500
C1789       C  0.75416631  0.35079600  0.14339274    -0.23300
C1790       C  0.72440227  0.33245065  0.13894819    -0.23600
C1791       C  0.70014510  0.34865542  0.16202872    -0.00600
H1792       H  0.77631134  0.34788875  0.12431426     0.13200
H1793       H  0.71977051  0.31276335  0.11669000     0.13300
N1794       N  0.62418851  0.46947309  0.17005054    -0.03100
C1795       C  0.62783969  0.50105071  0.15361348    -0.00500
C1796       C  0.60574250  0.50475440  0.12154548    -0.23300
C1797       C  0.59075159  0.47354070  0.11519772    -0.23600
C1798       C  0.60294049  0.45196390  0.14475091    -0.00600
H1799       H  0.60176261  0.02746211  0.10364677     0.13200
H1800       H  0.57458825  0.46669325  0.09000542     0.13300
O1801       O  0.81208684  0.37171724  0.06268745    -0.81400
C1802       C  0.84242101  0.47924633  0.16334551     0.98000
O1803       O  0.81363355  0.47784462  0.14556732    -0.70500
O1804       O  0.83696781  0.46916165  0.07009083    -0.74100
Al1805     Al  0.80292255  0.44606631  0.10231214     1.49000
C1806       C  0.85521219  0.45331284  0.04455385     0.93200
O1807       O  0.89689089  0.40094585  0.10398550    -0.80300
O1808       O  0.82757298  0.35975982  0.17378940    -0.73900
Al1809     Al  0.85319283  0.38742790  0.08617803     1.90100
O1810       O  0.88776275  0.39718954  0.16823871    -0.72900
O1811       O  0.79254213  0.41660879  0.18741801    -0.72800
O1812       O  0.85451071  0.45277258  0.17896074    -0.78400
O1813       O  0.76627976  0.42405414  0.13016219    -0.76600
O1814       O  0.83194103  0.41359478  0.12041299    -1.12800
O1815       O  0.78783405  0.42177941  0.05426699    -0.72000
C1816       C  0.79353167  0.39156427  0.04213117     0.98700
C1817       C  0.90826511  0.39923728  0.13915789     0.95100
Al1818     Al  0.83937849  0.40744212  0.17310954     1.55600
O1819       O  0.85832256  0.42133063  0.04650012    -0.76600
C1820       C  0.76776081  0.40982358  0.16420815     0.99300
C1821       C  0.84079130  0.33772595  0.15085615     0.94200
O1822       O  0.85379864  0.34663855  0.11788686    -0.81900
N1823       N  0.87546388  0.47080221  0.01483662    -0.03100
C1824       C  0.87334278  0.50381022  0.33577884    -0.00500
C1825       C  0.90037795  0.51036014  0.30982943    -0.23300
C1826       C  0.91877083  0.48067144  0.30542964    -0.23600
C1827       C  0.90264953  0.45638130  0.32861061    -0.00600
H1828       H  0.90323004  0.03248855  0.29070368     0.13200
H1829       H  0.93842997  0.47608707  0.28313816     0.13300
N1830       N  0.78182438  0.38037702  0.00332045    -0.03100
C1831       C  0.75028257  0.38411811  0.32017122    -0.00500
C1832       C  0.74651179  0.36205152  0.28807635    -0.23300
C1833       C  0.77766933  0.34703031  0.28172704    -0.23600
C1834       C  0.79927326  0.35915095  0.31132083    -0.00600
H1835       H  0.72380011  0.35808391  0.27019032     0.13200
H1836       H  0.78446002  0.33088474  0.25651677     0.13300
O1837       O  0.87957194  0.06826860  0.22939012    -0.81400
C1838       C  0.77198252  0.09836473  0.32993990     0.98000
O1839       O  0.77334879  0.06959453  0.31211756    -0.70500
O1840       O  0.78213379  0.09296275  0.23668425    -0.74100
Al1841     Al  0.80516272  0.05893064  0.26889596     1.49000
C1842       C  0.79801547  0.11126557  0.21119075     0.93200
O1843       O  0.85032811  0.15295364  0.27070340    -0.80300
O1844       O  0.89142340  0.08363217  0.00711831    -0.73900
Al1845     Al  0.86385728  0.10931757  0.25287370     1.90100
O1846       O  0.85408121  0.14379087  0.00162067    -0.72900
O1847       O  0.83455682  0.04851234  0.02068781    -0.72800
O1848       O  0.79846096  0.11044417  0.01230080    -0.78400
O1849       O  0.82711465  0.02228884  0.29673906    -0.76600
O1850       O  0.83764550  0.08798585  0.28706216    -1.12800
O1851       O  0.82950115  0.04390733  0.22087247    -0.72000
C1852       C  0.85974652  0.04966059  0.20880586     0.98700
C1853       C  0.85202385  0.16430545  0.30588668     0.95100
Al1854     Al  0.84377650  0.09538150  0.00644310     1.55600
O1855       O  0.83000498  0.11439283  0.21313920    -0.76600
C1856       C  0.84135992  0.02377447  0.33078044     0.99300
C1857       C  0.91348729  0.09691061  0.31756468     0.94200
O1858       O  0.90461644  0.10999434  0.28463585    -0.81900
N1859       N  0.78056016  0.13158161  0.18154925    -0.03100
C1860       C  0.74751668  0.12954964  0.16926325    -0.00500
C1861       C  0.74103088  0.15663345  0.14338597    -0.23300
C1862       C  0.77079471  0.17497829  0.13893575    -0.23600
C1863       C  0.79505286  0.15877634  0.16201720    -0.00600
H1864       H  0.71888476  0.15953876  0.12430899     0.13200
H1865       H  0.77542539  0.19466347  0.11667436     0.13300
N1866       N  0.87100732  0.03795915  0.17003657    -0.03100
C1867       C  0.86735586  0.00638195  0.15359928    -0.00500
C1868       C  0.88945290  0.00267837  0.12153060    -0.23300
C1869       C  0.90444405  0.03389185  0.11518279    -0.23600
C1870       C  0.89225558  0.05546825  0.14473674    -0.00600
H1871       H  0.89343338  0.47997049  0.10363273     0.13200
H1872       H  0.92060821  0.04073926  0.08999045     0.13300
O1873       O  0.86562886  0.18916383  0.06272322    -0.81400
C1874       C  0.97321707  0.15906646  0.16327320     0.98000
O1875       O  0.97185200  0.18783625  0.14544967    -0.70500
O1876       O  0.96306664  0.16446712  0.07001771    -0.74100
Al1877     Al  0.94003849  0.19850052  0.10222827     1.49000
C1878       C  0.94718481  0.14616494  0.04452422     0.93200
O1879       O  0.89487252  0.10447893  0.10403682    -0.80300
O1880       O  0.85377618  0.17380145  0.17378459    -0.73900
Al1881     Al  0.88134311  0.14811471  0.08620703     1.90100
O1882       O  0.89111818  0.11364194  0.16828721    -0.72900
O1883       O  0.91064351  0.20892061  0.18735355    -0.72800
O1884       O  0.94673808  0.14698809  0.17896780    -0.78400
O1885       O  0.91808768  0.23514339  0.13007098    -0.76600
O1886       O  0.90755491  0.16944633  0.12039513    -1.12800
O1887       O  0.91570040  0.21352405  0.05420462    -0.72000
C1888       C  0.88545486  0.20777134  0.04213847     0.98700
C1889       C  0.89317683  0.09312730  0.13922021     0.95100
Al1890     Al  0.90142304  0.16205137  0.17310946     1.55600
O1891       O  0.91519520  0.14303926  0.04647196    -0.76600
C1892       C  0.90384211  0.23365860  0.16411264     0.99300
C1893       C  0.83171260  0.16052185  0.15089858     0.94200
O1894       O  0.84058379  0.14743786  0.11796989    -0.81900
N1895       N  0.96463999  0.12584858  0.01488292    -0.03100
C1896       C  0.99768362  0.12788072  0.33593014    -0.00500
C1897       C  0.00416921  0.10079823  0.31005090    -0.23300
C1898       C  0.97440507  0.08245419  0.30559964    -0.23600
C1899       C  0.95014705  0.09865530  0.32868251    -0.00600
H1900       H  0.52631491  0.09789368  0.29097367     0.13200
H1901       H  0.96977393  0.06277085  0.28333672     0.13300
N1902       N  0.87419448  0.21947315  0.00336936    -0.03100
C1903       C  0.87784579  0.25105072  0.32026546    -0.00500
C1904       C  0.85574922  0.25475454  0.28819695    -0.23300
C1905       C  0.84075822  0.22354110  0.28184908    -0.23600
C1906       C  0.85294611  0.20196451  0.31140306    -0.00600
H1907       H  0.85176868  0.27746237  0.27029890     0.13200
H1908       H  0.82459448  0.21669407  0.25665730     0.13300
O1909       O  0.56208194  0.12171837  0.22936131    -0.81400
C1910       C  0.59242334  0.22924445  0.33002324     0.98000
O1911       O  0.56363629  0.22784468  0.31224398    -0.70500
O1912       O  0.58697056  0.21916077  0.23676875    -0.74100
Al1913     Al  0.55292368  0.19606749  0.26898778     1.49000
C1914       C  0.60521351  0.20331169  0.21123084     0.93200
O1915       O  0.64688810  0.15093857  0.27066033    -0.80300
O1916       O  0.57757057  0.10975712  0.00713224    -0.73900
Al1917     Al  0.60318915  0.13742508  0.25285272     1.90100
O1918       O  0.63776074  0.14718553  0.00158050    -0.72900
O1919       O  0.54254117  0.16660711  0.02075805    -0.72800
O1920       O  0.60451137  0.20276936  0.01230368    -0.78400
O1921       O  0.51627925  0.17405802  0.29683602    -0.76600
O1922       O  0.58193974  0.16359318  0.28708835    -1.12800
O1923       O  0.53783357  0.17178252  0.22094049    -0.72000
C1924       C  0.54352891  0.14156687  0.20880433     0.98700
C1925       C  0.65826260  0.14923109  0.30583254     0.95100
Al1926     Al  0.58937713  0.15743938  0.00645144     1.55600
O1927       O  0.60832216  0.17132910  0.21317577    -0.76600
C1928       C  0.51776081  0.15982319  0.33087939     0.99300
C1929       C  0.59078709  0.08772257  0.31753176     0.94200
O1930       O  0.60379187  0.09663458  0.28456075    -0.81900
N1931       N  0.62546443  0.22080148  0.18151340    -0.01500
C1932       C  0.62334212  0.25380994  0.16912346    -0.00500
C1933       C  0.65037632  0.26036077  0.14317293    -0.23300
C1934       C  0.66876946  0.23067247  0.13877108    -0.23600
C1935       C  0.65264963  0.20638143  0.16195230    -0.00600
H1936       H  0.65322725  0.28248977  0.12404739     0.13200
H1937       H  0.68842795  0.22608904  0.11647820     0.13300
N1938       N  0.53182325  0.13038040  0.16999209    -0.03100
C1939       C  0.50028174  0.13411930  0.15350710    -0.00500
C1940       C  0.49651275  0.11205079  0.12141360    -0.23300
C1941       C  0.52767044  0.09702940  0.11506799    -0.23600
C1942       C  0.54927294  0.10915242  0.14466188    -0.00600
H1943       H  0.97380195  0.10808238  0.10352570     0.13200
H1944       H  0.53446262  0.08088215  0.08985940     0.13300
O1945       O  0.62957314  0.31826922  0.06273623    -0.81400
C1946       C  0.52198135  0.34836649  0.16327653     0.98000
O1947       O  0.52334730  0.31959482  0.14545729    -0.70500
O1948       O  0.53213377  0.34295845  0.07002361    -0.74100
Al1949     Al  0.55516252  0.30892836  0.10223882     1.49000
C1950       C  0.54801612  0.36126169  0.04453139     0.93200
O1951       O  0.60032348  0.40295309  0.10404983    -0.80300
O1952       O  0.64142146  0.33363029  0.17379743    -0.73900
Al1953     Al  0.61385596  0.35931751  0.08621952     1.90100
O1954       O  0.60407952  0.39378962  0.16830000    -0.72900
O1955       O  0.58455406  0.29851100  0.18736594    -0.72800
O1956       O  0.54845842  0.36044379  0.17897639    -0.78400
O1957       O  0.57711286  0.27228693  0.13008445    -0.76600
O1958       O  0.58764431  0.33798437  0.12040660    -1.12800
O1959       O  0.57950403  0.29390396  0.05421813    -0.72000
C1960       C  0.60974930  0.29965910  0.04215224     0.98700
C1961       C  0.60201980  0.41430461  0.13923339     0.95100
Al1962     Al  0.59377425  0.34538012  0.17312134     1.55600
O1963       O  0.58000531  0.36439076  0.04648326    -0.76600
C1964       C  0.59135807  0.27377316  0.16412576     0.99300
C1965       C  0.66348519  0.34691057  0.15091139     0.94200
O1966       O  0.65461410  0.35999594  0.11798351    -0.81900
N1967       N  0.53056222  0.38157846  0.01488926    -0.03100
C1968       C  0.49751962  0.37954869  0.33593350    -0.00500
C1969       C  0.49103557  0.40663632  0.31006113    -0.23300
C1970       C  0.52079980  0.42498163  0.30561726    -0.23600
C1971       C  0.54505632  0.40877571  0.32869700    -0.00600
H1972       H  0.96889075  0.40954409  0.29098238     0.13200
H1973       H  0.52543197  0.44466961  0.28335963     0.13300
N1974       N  0.62101181  0.28795687  0.00338399    -0.03100
C1975       C  0.61735983  0.25637980  0.32027960    -0.00500
C1976       C  0.63945722  0.25267629  0.28821129    -0.23300
C1977       C  0.65444919  0.28388970  0.28186441    -0.23600
C1978       C  0.64226054  0.30546619  0.31141819    -0.00600
H1979       H  0.64343650  0.22996935  0.27031197     0.13200
H1980       H  0.67061333  0.29073691  0.25667262     0.13300
O1981       O  0.93311447  0.38571641  0.22935293    -0.81400
C1982       C  0.90278025  0.27818651  0.33001153     0.98000
O1983       O  0.93156771  0.27958852  0.31223281    -0.70500
O1984       O  0.90823386  0.28827213  0.23675639    -0.74100
Al1985     Al  0.94227874  0.31136722  0.26897767     1.49000
C1986       C  0.88998934  0.30412096  0.21121993     0.93200
O1987       O  0.84831047  0.35648898  0.27065336    -0.80300
O1988       O  0.91762837  0.39767314  0.00712328    -0.73900
Al1989     Al  0.89200865  0.37000618  0.25284485     1.90100
O1990       O  0.85743868  0.36024348  0.00157298    -0.72900
O1991       O  0.95265851  0.34082312  0.02075054    -0.72800
O1992       O  0.89069009  0.30466013  0.01229326    -0.78400
O1993       O  0.97892134  0.33337922  0.29682748    -0.76600
O1994       O  0.91326026  0.34383868  0.28707928    -1.12800
O1995       O  0.95736726  0.33565422  0.22093255    -0.72000
C1996       C  0.95166947  0.36586918  0.20879641     0.98700
C1997       C  0.83693635  0.35819636  0.30582603     0.95100
Al1998     Al  0.90582258  0.34999063  0.00644270     1.55600
O1999       O  0.88687803  0.33610313  0.21316725    -0.76600
C2000       C  0.97744020  0.34760848  0.33087418     0.99300
C2001       C  0.90441104  0.41970761  0.31752348     0.94200
O2002       O  0.89140393  0.41079558  0.28455408    -0.81900
N2003       N  0.86973863  0.28663170  0.18150201    -0.03100
C2004       C  0.87185973  0.25362360  0.16911056    -0.00500
C2005       C  0.84482511  0.24707374  0.14316112    -0.23300
C2006       C  0.82643244  0.27676236  0.13876138    -0.23600
C2007       C  0.84255316  0.30105234  0.16194281    -0.00600
H2008       H  0.84197283  0.22494504  0.12403545     0.13200
H2009       H  0.80677392  0.28134663  0.11647015     0.13300
N2010       N  0.96337688  0.37705607  0.16998536    -0.03100
C2011       C  0.99491894  0.37331420  0.15350291    -0.00500
C2012       C  0.99869026  0.39538010  0.12140718    -0.23300
C2013       C  0.96753283  0.41040115  0.11505704    -0.23600
C2014       C  0.94592838  0.39828157  0.14465150    -0.00600
H2015       H  0.52140272  0.39934759  0.10352139     0.13200
H2016       H  0.96074258  0.42654626  0.08984587     0.13300
O2017       O  0.68311589  0.13571222  0.39602623    -0.81400
C2018       C  0.65277623  0.02818578  0.49669015     0.98000
O2019       O  0.68156311  0.02958587  0.47890991    -0.70500
O2020       O  0.65822848  0.03826983  0.40343506    -0.74100
Al2021     Al  0.69227518  0.06136349  0.43565355     1.49000
C2022       C  0.63998508  0.05411876  0.37789780     0.93200
O2023       O  0.59831028  0.10649215  0.43732866    -0.80300
O2024       O  0.66762749  0.14767318  0.50713192    -0.73900
Al2025     Al  0.64200894  0.12000542  0.41951949     1.90100
O2026       O  0.60743797  0.11024355  0.50158211    -0.72900
O2027       O  0.70265808  0.09082399  0.52075739    -0.72800
O2028       O  0.64068830  0.05466068  0.51230468    -0.78400
O2029       O  0.72891951  0.08337356  0.46350116    -0.76600
O2030       O  0.66325871  0.09383731  0.45375471    -1.12800
O2031       O  0.70736482  0.08564838  0.38760604    -0.72000
C2032       C  0.70166926  0.11586370  0.37546936     0.98700
C2033       C  0.58693600  0.10819822  0.47250133     0.95100
Al2034     Al  0.65582176  0.09999081  0.50645165     1.55600
O2035       O  0.63687551  0.08610127  0.37984326    -0.76600
C2036       C  0.72743855  0.09760761  0.49754503     0.99300
C2037       C  0.65441158  0.16970776  0.48419797     0.94200
O2038       O  0.64140671  0.16079575  0.45122732    -0.81900
N2039       N  0.61973481  0.03662907  0.34818017    -0.03100
C2040       C  0.62185755  0.00362075  0.66912315    -0.00500
C2041       C  0.59482346  0.99706973  0.64317328    -0.23300
C2042       C  0.57642992  0.02675778  0.63877192    -0.23600
C2043       C  0.59254955  0.05104892  0.66195281    -0.00600
H2044       H  0.59197267  0.47494070  0.62404753     0.13200
H2045       H  0.55677166  0.03134109  0.61647956     0.13300
N2046       N  0.71337546  0.12704966  0.33665684    -0.03100
C2047       C  0.74491742  0.12331071  0.65350544    -0.00500
C2048       C  0.74868637  0.14537801  0.62141082    -0.23300
C2049       C  0.71752837  0.16039813  0.61506387    -0.23600
C2050       C  0.69592572  0.14827603  0.64465865    -0.00600
H2051       H  0.77139764  0.14934687  0.60352292     0.13200
H2052       H  0.71073623  0.17654403  0.58985463     0.13300
O2053       O  0.61562706  0.43916012  0.56273613    -0.81400
C2054       C  0.72321946  0.40906557  0.66327678     0.98000
O2055       O  0.72185317  0.43783651  0.64545593    -0.70500
O2056       O  0.71306666  0.41447166  0.57002300    -0.74100
Al2057     Al  0.69003769  0.44850203  0.60223790     1.49000
C2058       C  0.69718450  0.39616832  0.54453105     0.93200
O2059       O  0.64487752  0.35447694  0.60405034    -0.80300
O2060       O  0.60377958  0.42380000  0.34046450    -0.73900
Al2061     Al  0.63134474  0.39811222  0.58622002     1.90100
O2062       O  0.64112215  0.36364070  0.33496729    -0.72900
O2063       O  0.66064586  0.45892004  0.35403208    -0.72800
O2064       O  0.69674238  0.39698783  0.34564311    -0.78400
O2065       O  0.66808672  0.48514359  0.63008326    -0.76600
O2066       O  0.65755632  0.41944585  0.62040655    -1.12800
O2067       O  0.66569614  0.46352576  0.55421738    -0.72000
C2068       C  0.63545093  0.45777047  0.54215192     0.98700
C2069       C  0.64318148  0.34312552  0.63923403     0.95100
Al2070     Al  0.65142650  0.41205056  0.33978805     1.55600
O2071       O  0.66519535  0.39303891  0.54648332    -0.76600
C2072       C  0.65384167  0.48365769  0.66412494     0.99300
C2073       C  0.58171583  0.41051997  0.65091246     0.94200
O2074       O  0.59058675  0.39743380  0.61798493    -0.81900
N2075       N  0.71463866  0.37585225  0.51488846    -0.03100
C2076       C  0.74768173  0.37788276  0.50259938    -0.00500
C2077       C  0.75416626  0.35079599  0.47672590    -0.23300
C2078       C  0.72440223  0.33245049  0.47228146    -0.23600
C2079       C  0.70014511  0.34865532  0.49536212    -0.00600
H2080       H  0.77631141  0.34788874  0.45764703     0.13200
H2081       H  0.71977027  0.31276309  0.45002347     0.13300
N2082       N  0.62418846  0.46947315  0.50338397    -0.03100
C2083       C  0.62783974  0.50105075  0.48694686    -0.00500
C2084       C  0.60574256  0.50475445  0.45487892    -0.23300
C2085       C  0.59075166  0.47354075  0.44853120    -0.23600
C2086       C  0.60294056  0.45196392  0.47808434    -0.00600
H2087       H  0.60176246  0.02746211  0.43697980     0.13200
H2088       H  0.57458816  0.46669329  0.42333946     0.13300
O2089       O  0.81208683  0.37171730  0.39602079    -0.81400
C2090       C  0.84242103  0.47924633  0.49667879     0.98000
O2091       O  0.81363358  0.47784471  0.47890055    -0.70500
O2092       O  0.83696768  0.46916177  0.40342419    -0.74100
Al2093     Al  0.80292248  0.44606636  0.43564544     1.49000
C2094       C  0.85521213  0.45331295  0.37788724     0.93200
O2095       O  0.89689098  0.40094588  0.43731900    -0.80300
O2096       O  0.82757293  0.35975985  0.50712276    -0.73900
Al2097     Al  0.85319286  0.38742794  0.41951135     1.90100
O2098       O  0.88776270  0.39718958  0.50157207    -0.72900
O2099       O  0.79254218  0.41660877  0.52075132    -0.72800
O2100       O  0.85451069  0.45277254  0.51229405    -0.78400
O2101       O  0.76627966  0.42405416  0.46349542    -0.76600
O2102       O  0.83194101  0.41359482  0.45374626    -1.12800
O2103       O  0.78783408  0.42177944  0.38760028    -0.72000
C2104       C  0.79353163  0.39156429  0.37546454     0.98700
C2105       C  0.90826515  0.39923729  0.47249136     0.95100
Al2106     Al  0.83937847  0.40744214  0.50644285     1.55600
O2107       O  0.85832256  0.42133073  0.37983345    -0.76600
C2108       C  0.76776082  0.40982362  0.49754143     0.99300
C2109       C  0.84079125  0.33772597  0.48418952     0.94200
O2110       O  0.85379863  0.34663855  0.45122026    -0.81900
N2111       N  0.87546382  0.47080216  0.34816996    -0.03100
C2112       C  0.87334276  0.50381030  0.66911223    -0.00500
C2113       C  0.90037792  0.51036015  0.64316290    -0.23300
C2114       C  0.91877082  0.48067154  0.63876300    -0.23600
C2115       C  0.90264961  0.45638141  0.66194413    -0.00600
H2116       H  0.90322993  0.03248900  0.62403662     0.13200
H2117       H  0.93842995  0.47608748  0.61647158     0.13300
N2118       N  0.78182440  0.38037699  0.33665384    -0.03100
C2119       C  0.75028255  0.38411817  0.65350452    -0.00500
C2120       C  0.74651173  0.36205139  0.62140968    -0.23300
C2121       C  0.77766932  0.34703022  0.61506022    -0.23600
C2122       C  0.79927327  0.35915100  0.64465397    -0.00600
H2123       H  0.72380006  0.35808371  0.60352362     0.13200
H2124       H  0.78446000  0.33088463  0.58984990     0.13300
O2125       O  0.87957201  0.06826858  0.56272343    -0.81400
C2126       C  0.77198253  0.09836471  0.66327303     0.98000
O2127       O  0.77334871  0.06959449  0.64545074    -0.70500
O2128       O  0.78213381  0.09296273  0.57001743    -0.74100
Al2129     Al  0.80516274  0.05893056  0.60222920     1.49000
C2130       C  0.79801553  0.11126558  0.54452404     0.93200
O2131       O  0.85032800  0.15295358  0.60403670    -0.80300
O2132       O  0.89142338  0.08363214  0.34045169    -0.73900
Al2133     Al  0.86385725  0.10931759  0.58620704     1.90100
O2134       O  0.85408116  0.14379095  0.33495396    -0.72900
O2135       O  0.83455688  0.04851223  0.35402103    -0.72800
O2136       O  0.79846095  0.11044415  0.34563425    -0.78400
O2137       O  0.82711463  0.02228873  0.63007223    -0.76600
O2138       O  0.83764546  0.08798585  0.62039556    -1.12800
O2139       O  0.82950123  0.04390729  0.55420573    -0.72000
C2140       C  0.85974658  0.04966057  0.54213920     0.98700
C2141       C  0.85202375  0.16430533  0.63922003     0.95100
Al2142     Al  0.84377649  0.09538151  0.33977641     1.55600
O2143       O  0.83000504  0.11439274  0.54647250    -0.76600
C2144       C  0.84135978  0.02377447  0.66411374     0.99300
C2145       C  0.91348735  0.09691065  0.65089805     0.94200
O2146       O  0.90461643  0.10999434  0.61796921    -0.81900
N2147       N  0.78056023  0.13158151  0.51488251    -0.03100
C2148       C  0.74751673  0.12954955  0.50259653    -0.00500
C2149       C  0.74103085  0.15663330  0.47671925    -0.23300
C2150       C  0.77079465  0.17497827  0.47226922    -0.23600
C2151       C  0.79505287  0.15877621  0.49535049    -0.00600
H2152       H  0.71888473  0.15953880  0.45764240     0.13200
H2153       H  0.77542538  0.19466303  0.45000777     0.13300
N2154       N  0.87100730  0.03795913  0.50336998    -0.03100
C2155       C  0.86735576  0.00638194  0.48693269    -0.00500
C2156       C  0.88945282  0.00267819  0.45486414    -0.23300
C2157       C  0.90444392  0.03389177  0.44851632    -0.23600
C2158       C  0.89225553  0.05546822  0.47807027    -0.00600
H2159       H  0.89343337  0.47997042  0.43696602     0.13200
H2160       H  0.92060802  0.04073911  0.42332441     0.13300
O2161       O  0.86562894  0.18916384  0.39605656    -0.81400
C2162       C  0.97321708  0.15906642  0.49660654     0.98000
O2163       O  0.97185204  0.18783617  0.47878294    -0.70500
O2164       O  0.96306664  0.16446714  0.40335096    -0.74100
Al2165     Al  0.94003850  0.19850053  0.43556164     1.49000
C2166       C  0.94718484  0.14616496  0.37785748     0.93200
O2167       O  0.89487254  0.10447890  0.43737007    -0.80300
O2168       O  0.85377622  0.17380137  0.50711787    -0.73900
Al2169     Al  0.88134315  0.14811475  0.41954033     1.90100
O2170       O  0.89111816  0.11364195  0.50162060    -0.72900
O2171       O  0.91064351  0.20892054  0.52068691    -0.72800
O2172       O  0.94673805  0.14698795  0.51230103    -0.78400
O2173       O  0.91808767  0.23514335  0.46340446    -0.76600
O2174       O  0.90755489  0.16944645  0.45372852    -1.12800
O2175       O  0.91570037  0.21352403  0.38753788    -0.72000
C2176       C  0.88545479  0.20777157  0.37547187     0.98700
C2177       C  0.89317682  0.09312731  0.47255354     0.95100
Al2178     Al  0.90142305  0.16205137  0.50644282     1.55600
O2179       O  0.91519520  0.14303931  0.37980528    -0.76600
C2180       C  0.90384205  0.23365855  0.49744606     0.99300
C2181       C  0.83171260  0.16052186  0.48423184     0.94200
O2182       O  0.84058381  0.14743786  0.45130322    -0.81900
N2183       N  0.96464010  0.12584860  0.34821621    -0.03100
C2184       C  0.99768348  0.12788081  0.66926348    -0.00500
C2185       C  0.00416914  0.10079822  0.64338439    -0.23300
C2186       C  0.97440509  0.08245419  0.63893298    -0.23600
C2187       C  0.95014708  0.09865523  0.66201595    -0.00600
H2188       H  0.52631480  0.09789335  0.62430760     0.13200
H2189       H  0.96977441  0.06277037  0.61667015     0.13300
N2190       N  0.87419441  0.21947327  0.33670258    -0.03100
C2191       C  0.87784576  0.25105064  0.65359874    -0.00500
C2192       C  0.85574921  0.25475441  0.62153027    -0.23300
C2193       C  0.84075824  0.22354096  0.61518242    -0.23600
C2194       C  0.85294617  0.20196441  0.64473623    -0.00600
H2195       H  0.85176861  0.27746224  0.60363267     0.13200
H2196       H  0.82459454  0.21669378  0.58999035     0.13300
O2197       O  0.56208201  0.12171839  0.56269466    -0.81400
C2198       C  0.59242335  0.22924447  0.66335652     0.98000
O2199       O  0.56363623  0.22784484  0.64557731    -0.70500
O2200       O  0.58697048  0.21916074  0.57010213    -0.74100
Al2201     Al  0.55292366  0.19606752  0.60232105     1.49000
C2202       C  0.60521345  0.20331166  0.54456426     0.93200
O2203       O  0.64688813  0.15093852  0.60399376    -0.80300
O2204       O  0.57757060  0.10975710  0.34046560    -0.73900
Al2205     Al  0.60318918  0.13742507  0.58618607     1.90100
O2206       O  0.63776072  0.14718549  0.33491387    -0.72900
O2207       O  0.54254111  0.16660703  0.35409145    -0.72800
O2208       O  0.60451135  0.20276927  0.34563699    -0.78400
O2209       O  0.51627929  0.17405804  0.63016933    -0.76600
O2210       O  0.58193978  0.16359323  0.62042165    -1.12800
O2211       O  0.53783358  0.17178252  0.55427377    -0.72000
C2212       C  0.54352888  0.14156682  0.54213770     0.98700
C2213       C  0.65826261  0.14923121  0.63916601     0.95100
Al2214     Al  0.58937711  0.15743936  0.33978482     1.55600
O2215       O  0.60832222  0.17132905  0.54650915    -0.76600
C2216       C  0.51776078  0.15982323  0.66421268     0.99300
C2217       C  0.59078709  0.08772260  0.65086503     0.94200
O2218       O  0.60379188  0.09663465  0.61789410    -0.81900
N2219       N  0.62546425  0.22080146  0.51484674    -0.01500
C2220       C  0.62334206  0.25380993  0.50245676    -0.00500
C2221       C  0.65037625  0.26036073  0.47650637    -0.23300
C2222       C  0.66876934  0.23067248  0.47210460    -0.23600
C2223       C  0.65264948  0.20638144  0.49528576    -0.00600
H2224       H  0.65322742  0.28248976  0.45738077     0.13200
H2225       H  0.68842782  0.22608918  0.44981216     0.13300
N2226       N  0.53182322  0.13038037  0.50332543    -0.03100
C2227       C  0.50028177  0.13411939  0.48684027    -0.00500
C2228       C  0.49651273  0.11205076  0.45474684    -0.23300
C2229       C  0.52767040  0.09702938  0.44840119    -0.23600
C2230       C  0.54927292  0.10915240  0.47799510    -0.00600
H2231       H  0.97380190  0.10808271  0.43685847     0.13200
H2232       H  0.53446279  0.08088250  0.42319216     0.13300
O2233       O  0.62957316  0.31826939  0.39606967    -0.81400
C2234       C  0.52198134  0.34836645  0.49660988     0.98000
O2235       O  0.52334726  0.31959477  0.47879069    -0.70500
O2236       O  0.53213378  0.34295851  0.40335698    -0.74100
Al2237     Al  0.55516250  0.30892834  0.43557214     1.49000
C2238       C  0.54801620  0.36126172  0.37786471     0.93200
O2239       O  0.60032343  0.40295309  0.43738314    -0.80300
O2240       O  0.64142137  0.33363028  0.50713076    -0.73900
Al2241     Al  0.61385591  0.35931756  0.41955294     1.90100
O2242       O  0.60407944  0.39378956  0.50163339    -0.72900
O2243       O  0.58455401  0.29851080  0.52069928    -0.72800
O2244       O  0.54845839  0.36044367  0.51230986    -0.78400
O2245       O  0.57711291  0.27228688  0.46341780    -0.76600
O2246       O  0.58764428  0.33798434  0.45373993    -1.12800
O2247       O  0.57950406  0.29390403  0.38755146    -0.72000
C2248       C  0.60974936  0.29965917  0.37548571     0.98700
C2249       C  0.60201967  0.41430458  0.47256675     0.95100
Al2250     Al  0.59377425  0.34538004  0.50645469     1.55600
O2251       O  0.58000533  0.36439079  0.37981660    -0.76600
C2252       C  0.59135819  0.27377312  0.49745901     0.99300
C2253       C  0.66348514  0.34691046  0.48424473     0.94200
O2254       O  0.65461401  0.35999599  0.45131697    -0.81900
N2255       N  0.53056235  0.38157846  0.34822263    -0.03100
C2256       C  0.49751947  0.37954870  0.66926692    -0.00500
C2257       C  0.49103547  0.40663618  0.64339443    -0.23300
C2258       C  0.52079975  0.42498153  0.63895077    -0.23600
C2259       C  0.54505625  0.40877562  0.66203060    -0.00600
H2260       H  0.96889082  0.40954403  0.62431506     0.13200
H2261       H  0.52543212  0.44466906  0.61669369     0.13300
N2262       N  0.62101183  0.28795693  0.33671743    -0.03100
C2263       C  0.61735992  0.25637967  0.65361277    -0.00500
C2264       C  0.63945734  0.25267622  0.62154446    -0.23300
C2265       C  0.65444917  0.28388964  0.61519746    -0.23600
C2266       C  0.64226062  0.30546612  0.64475133    -0.00600
H2267       H  0.64343673  0.22996872  0.60364531     0.13200
H2268       H  0.67061333  0.29073726  0.59000520     0.13300
O2269       O  0.93311441  0.38571644  0.56268626    -0.81400
C2270       C  0.90278018  0.27818649  0.66334471     0.98000
O2271       O  0.93156766  0.27958847  0.64556608    -0.70500
O2272       O  0.90823382  0.28827208  0.57008967    -0.74100
Al2273     Al  0.94227873  0.31136725  0.60231100     1.49000
C2274       C  0.88998920  0.30412095  0.54455326     0.93200
O2275       O  0.84831047  0.35648902  0.60398669    -0.80300
O2276       O  0.91762837  0.39767311  0.34045665    -0.73900
Al2277     Al  0.89200859  0.37000621  0.58617817     1.90100
O2278       O  0.85743867  0.36024349  0.33490636    -0.72900
O2279       O  0.95265852  0.34082310  0.35408390    -0.72800
O2280       O  0.89069008  0.30466023  0.34562659    -0.78400
O2281       O  0.97892124  0.33337921  0.63016077    -0.76600
O2282       O  0.91326025  0.34383878  0.62041253    -1.12800
O2283       O  0.95736721  0.33565424  0.55426590    -0.72000
C2284       C  0.95166946  0.36586919  0.54212980     0.98700
C2285       C  0.83693636  0.35819632  0.63915935     0.95100
Al2286     Al  0.90582258  0.34999062  0.33977611     1.55600
O2287       O  0.88687802  0.33610315  0.54650045    -0.76600
C2288       C  0.97744016  0.34760844  0.66420750     0.99300
C2289       C  0.90441103  0.41970768  0.65085690     0.94200
O2290       O  0.89140398  0.41079555  0.61788749    -0.81900
N2291       N  0.86973849  0.28663164  0.51483541    -0.03100
C2292       C  0.87185963  0.25362357  0.50244384    -0.00500
C2293       C  0.84482506  0.24707376  0.47649428    -0.23300
C2294       C  0.82643244  0.27676248  0.47209466    -0.23600
C2295       C  0.84255312  0.30105238  0.49527611    -0.00600
H2296       H  0.84197299  0.22494513  0.45736847     0.13200
H2297       H  0.80677414  0.28134714  0.44980317     0.13300
N2298       N  0.96337690  0.37705601  0.50331883    -0.03100
C2299       C  0.99491899  0.37331414  0.48683640    -0.00500
C2300       C  0.99869040  0.39537987  0.45474073    -0.23300
C2301       C  0.96753297  0.41040101  0.44839071    -0.23600
C2302       C  0.94592843  0.39828140  0.47798508    -0.00600
H2303       H  0.52140272  0.39934746  0.43685490     0.13200
H2304       H  0.96074280  0.42654568  0.42317990     0.13300
O2305       O  0.68311586  0.13571219  0.72935959    -0.81400
C2306       C  0.65277618  0.02818581  0.83002354     0.98000
O2307       O  0.68156309  0.02958588  0.81224330    -0.70500
O2308       O  0.65822851  0.03826988  0.73676839    -0.74100
Al2309     Al  0.69227524  0.06136347  0.76898692     1.49000
C2310       C  0.63998504  0.05411884  0.71123118     0.93200
O2311       O  0.59831022  0.10649209  0.77066210    -0.80300
O2312       O  0.66762752  0.14767318  0.84046531    -0.73900
Al2313     Al  0.64200898  0.12000544  0.75285294     1.90100
O2314       O  0.60743803  0.11024357  0.83491535    -0.72900
O2315       O  0.70265802  0.09082399  0.85409080    -0.72800
O2316       O  0.64068819  0.05466074  0.84563804    -0.78400
O2317       O  0.72891946  0.08337357  0.79683455    -0.76600
O2318       O  0.66325887  0.09383731  0.78708814    -1.12800
O2319       O  0.70736491  0.08564838  0.72093943    -0.72000
C2320       C  0.70166928  0.11586367  0.70880273     0.98700
C2321       C  0.58693599  0.10819823  0.80583470     0.95100
Al2322     Al  0.65582175  0.09999079  0.83978499     1.55600
O2323       O  0.63687557  0.08610134  0.71317654    -0.76600
C2324       C  0.72743854  0.09760756  0.83087845     0.99300
C2325       C  0.65441157  0.16970778  0.81753141     0.94200
O2326       O  0.64140677  0.16079587  0.78456073    -0.81900
N2327       N  0.61973476  0.03662908  0.68151355    -0.03100
C2328       C  0.62185758  0.00362072  0.00245660    -0.00500
C2329       C  0.59482353  0.99706967  0.97650670    -0.23300
C2330       C  0.57642994  0.02675775  0.97210541    -0.23600
C2331       C  0.59254956  0.05104892  0.99528627    -0.00600
H2332       H  0.59197282  0.47494092  0.95738079     0.13200
H2333       H  0.55677163  0.03134082  0.94981351     0.13300
N2334       N  0.71337545  0.12704953  0.66999019    -0.03100
C2335       C  0.74491730  0.12331066  0.98683869    -0.00500
C2336       C  0.74868634  0.14537809  0.95474411    -0.23300
C2337       C  0.71752839  0.16039822  0.94839708    -0.23600
C2338       C  0.69592568  0.14827606  0.97799173    -0.00600
H2339       H  0.77139765  0.14934669  0.93685633     0.13200
H2340       H  0.71073628  0.17654421  0.92318736     0.13300
O2341       O  0.61562709  0.43916013  0.89606954    -0.81400
C2342       C  0.72321943  0.40906550  0.99660997     0.98000
O2343       O  0.72185325  0.43783658  0.97878928    -0.70500
O2344       O  0.71306663  0.41447170  0.90335631    -0.74100
Al2345     Al  0.69003769  0.44850205  0.93557114     1.49000
C2346       C  0.69718449  0.39616838  0.87786438     0.93200
O2347       O  0.64487752  0.35447693  0.93738375    -0.80300
O2348       O  0.60377954  0.42380008  0.67379795    -0.73900
Al2349     Al  0.63134475  0.39811222  0.91955331     1.90100
O2350       O  0.64112202  0.36364065  0.66830064    -0.72900
O2351       O  0.66064586  0.45892009  0.68736531    -0.72800
O2352       O  0.69674228  0.39698787  0.67897644    -0.78400
O2353       O  0.66808669  0.48514363  0.96341657    -0.76600
O2354       O  0.65755634  0.41944582  0.95373975    -1.12800
O2355       O  0.66569606  0.46352573  0.88755079    -0.72000
C2356       C  0.63545086  0.45777048  0.87548533     0.98700
C2357       C  0.64318143  0.34312551  0.97256741     0.95100
Al2358     Al  0.65142648  0.41205057  0.67312145     1.55600
O2359       O  0.66519532  0.39303904  0.87981657    -0.76600
C2360       C  0.65384161  0.48365767  0.99745831     0.99300
C2361       C  0.58171591  0.41051996  0.98424575     0.94200
O2362       O  0.59058682  0.39743380  0.95131816    -0.81900
N2363       N  0.71463869  0.37585230  0.84822178    -0.03100
C2364       C  0.74768177  0.37788277  0.83593270    -0.00500
C2365       C  0.75416633  0.35079598  0.81005920    -0.23300
C2366       C  0.72440227  0.33245059  0.80561478    -0.23600
C2367       C  0.70014517  0.34865543  0.82869540    -0.00600
H2368       H  0.77631146  0.34788871  0.79098028     0.13200
H2369       H  0.71977027  0.31276339  0.78335665     0.13300
N2370       N  0.62418845  0.46947302  0.83671725    -0.03100
C2371       C  0.62783979  0.50105053  0.82028019    -0.00500
C2372       C  0.60574259  0.50475422  0.78821216    -0.23300
C2373       C  0.59075160  0.47354054  0.78186442    -0.23600
C2374       C  0.60294043  0.45196378  0.81141760    -0.00600
H2375       H  0.60176261  0.02746152  0.77031347     0.13200
H2376       H  0.57458820  0.46669327  0.75667208     0.13300
O2377       O  0.81208692  0.37171726  0.72935404    -0.81400
C2378       C  0.84242106  0.47924627  0.83001219     0.98000
O2379       O  0.81363362  0.47784469  0.81223397    -0.70500
O2380       O  0.83696777  0.46916171  0.73675751    -0.74100
Al2381     Al  0.80292252  0.44606635  0.76897879     1.49000
C2382       C  0.85521214  0.45331293  0.71122056     0.93200
O2383       O  0.89689092  0.40094592  0.77065217    -0.80300
O2384       O  0.82757289  0.35975974  0.84045605    -0.73900
Al2385     Al  0.85319285  0.38742794  0.75284468     1.90100
O2386       O  0.88776272  0.39718939  0.83490533    -0.72900
O2387       O  0.79254222  0.41660874  0.85408457    -0.72800
O2388       O  0.85451073  0.45277244  0.84562738    -0.78400
O2389       O  0.76627970  0.42405413  0.79682876    -0.76600
O2390       O  0.83194102  0.41359484  0.78707964    -1.12800
O2391       O  0.78783412  0.42177949  0.72093366    -0.72000
C2392       C  0.79353168  0.39156429  0.70879784     0.98700
C2393       C  0.90826513  0.39923729  0.80582456     0.95100
Al2394     Al  0.83937846  0.40744207  0.83977617     1.55600
O2395       O  0.85832252  0.42133069  0.71316683    -0.76600
C2396       C  0.76776079  0.40982366  0.83087479     0.99300
C2397       C  0.84079125  0.33772589  0.81752277     0.94200
O2398       O  0.85379866  0.34663851  0.78455349    -0.81900
N2399       N  0.87546381  0.47080220  0.68150330    -0.03100
C2400       C  0.87334275  0.50381028  0.00244541    -0.00500
C2401       C  0.90037782  0.51036025  0.97649605    -0.23300
C2402       C  0.91877073  0.48067164  0.97209624    -0.23600
C2403       C  0.90264955  0.45638138  0.99527727    -0.00600
H2404       H  0.90322984  0.03248898  0.95736991     0.13200
H2405       H  0.93842983  0.47608737  0.94980481     0.13300
N2406       N  0.78182439  0.38037701  0.66998712    -0.03100
C2407       C  0.75028251  0.38411813  0.98683788    -0.00500
C2408       C  0.74651177  0.36205153  0.95474291    -0.23300
C2409       C  0.77766935  0.34703038  0.94839348    -0.23600
C2410       C  0.79927324  0.35915098  0.97798735    -0.00600
H2411       H  0.72380015  0.35808389  0.93685680     0.13200
H2412       H  0.78446009  0.33088489  0.92318312     0.13300
O2413       O  0.87957201  0.06826861  0.89605678    -0.81400
C2414       C  0.77198249  0.09836469  0.99660657     0.98000
O2415       O  0.77334877  0.06959451  0.97878419    -0.70500
O2416       O  0.78213380  0.09296268  0.90335086    -0.74100
Al2417     Al  0.80516274  0.05893060  0.93556260     1.49000
C2418       C  0.79801550  0.11126547  0.87785738     0.93200
O2419       O  0.85032801  0.15295359  0.93737009    -0.80300
O2420       O  0.89142347  0.08363210  0.67378497    -0.73900
Al2421     Al  0.86385728  0.10931758  0.91954039     1.90100
O2422       O  0.85408122  0.14379079  0.66828727    -0.72900
O2423       O  0.83455678  0.04851226  0.68735438    -0.72800
O2424       O  0.79846093  0.11044411  0.67896746    -0.78400
O2425       O  0.82711468  0.02228876  0.96340572    -0.76600
O2426       O  0.83764547  0.08798585  0.95372883    -1.12800
O2427       O  0.82950124  0.04390725  0.88753921    -0.72000
C2428       C  0.85974657  0.04966068  0.87547252     0.98700
C2429       C  0.85202376  0.16430536  0.97255343     0.95100
Al2430     Al  0.84377648  0.09538144  0.67310981     1.55600
O2431       O  0.83000500  0.11439277  0.87980581    -0.76600
C2432       C  0.84135986  0.02377452  0.99744720     0.99300
C2433       C  0.91348730  0.09691070  0.98423138     0.94200
O2434       O  0.90461651  0.10999430  0.95130255    -0.81900
N2435       N  0.78056027  0.13158144  0.84821591    -0.03100
C2436       C  0.74751686  0.12954944  0.83593003    -0.00500
C2437       C  0.74103101  0.15663325  0.81005290    -0.23300
C2438       C  0.77079484  0.17497814  0.80560257    -0.23600
C2439       C  0.79505294  0.15877621  0.82868394    -0.00600
H2440       H  0.71888531  0.15953841  0.79097598     0.13200
H2441       H  0.77542537  0.19466301  0.78334117     0.13300
N2442       N  0.87100733  0.03795920  0.83670332    -0.03100
C2443       C  0.86735575  0.00638211  0.82026598    -0.00500
C2444       C  0.88945290  0.00267840  0.78819750    -0.23300
C2445       C  0.90444402  0.03389198  0.78184969    -0.23600
C2446       C  0.89225553  0.05546834  0.81140356    -0.00600
H2447       H  0.89343337  0.47997089  0.77029952     0.13200
H2448       H  0.92060820  0.04073920  0.75665782     0.13300
O2449       O  0.86562887  0.18916384  0.72938983    -0.81400
C2450       C  0.97321703  0.15906641  0.82993988     0.98000
O2451       O  0.97185201  0.18783616  0.81211641    -0.70500
O2452       O  0.96306665  0.16446719  0.73668428    -0.74100
Al2453     Al  0.94003851  0.19850053  0.76889495     1.49000
C2454       C  0.94718483  0.14616498  0.71119086     0.93200
O2455       O  0.89487258  0.10447893  0.77070342    -0.80300
O2456       O  0.85377619  0.17380141  0.84045127    -0.73900
Al2457     Al  0.88134313  0.14811474  0.75287366     1.90100
O2458       O  0.89111809  0.11364199  0.83495382    -0.72900
O2459       O  0.91064352  0.20892060  0.85402019    -0.72800
O2460       O  0.94673801  0.14698811  0.84563439    -0.78400
O2461       O  0.91808774  0.23514339  0.79673772    -0.76600
O2462       O  0.90755486  0.16944648  0.78706176    -1.12800
O2463       O  0.91570039  0.21352407  0.72087125    -0.72000
C2464       C  0.88545477  0.20777151  0.70880513     0.98700
C2465       C  0.89317681  0.09312734  0.80588684     0.95100
Al2466     Al  0.90142307  0.16205143  0.83977606     1.55600
O2467       O  0.91519519  0.14303939  0.71313856    -0.76600
C2468       C  0.90384206  0.23365856  0.83077929     0.99300
C2469       C  0.83171261  0.16052189  0.81756518     0.94200
O2470       O  0.84058382  0.14743783  0.78463653    -0.81900
N2471       N  0.96464006  0.12584867  0.68154958    -0.03100
C2472       C  0.99768334  0.12788080  0.00259670    -0.00500
C2473       C  0.00416911  0.10079815  0.97671766    -0.23300
C2474       C  0.97440497  0.08245421  0.97226623    -0.23600
C2475       C  0.95014695  0.09865533  0.99534904    -0.00600
H2476       H  0.52631496  0.09789354  0.95764010     0.13200
H2477       H  0.96977425  0.06277053  0.95000330     0.13300
N2478       N  0.87419437  0.21947327  0.67003591    -0.03100
C2479       C  0.87784585  0.25105051  0.98693228    -0.00500
C2480       C  0.85574927  0.25475435  0.95486368    -0.23300
C2481       C  0.84075827  0.22354084  0.94851587    -0.23600
C2482       C  0.85294615  0.20196437  0.97806976    -0.00600
H2483       H  0.85176875  0.27746174  0.93696613     0.13200
H2484       H  0.82459456  0.21669378  0.92332384     0.13300
O2485       O  0.56208201  0.12171846  0.89602803    -0.81400
C2486       C  0.59242338  0.22924452  0.99668989     0.98000
O2487       O  0.56363634  0.22784476  0.97891059    -0.70500
O2488       O  0.58697058  0.21916077  0.90343546    -0.74100
Al2489     Al  0.55292370  0.19606745  0.93565440     1.49000
C2490       C  0.60521344  0.20331167  0.87789754     0.93200
O2491       O  0.64688807  0.15093863  0.93732705    -0.80300
O2492       O  0.57757066  0.10975713  0.67379887    -0.73900
Al2493     Al  0.60318917  0.13742507  0.91951940     1.90100
O2494       O  0.63776071  0.14718551  0.66824731    -0.72900
O2495       O  0.54254111  0.16660701  0.68742470    -0.72800
O2496       O  0.60451133  0.20276930  0.67897042    -0.78400
O2497       O  0.51627929  0.17405801  0.96350270    -0.76600
O2498       O  0.58193977  0.16359315  0.95375491    -1.12800
O2499       O  0.53783361  0.17178251  0.88760716    -0.72000
C2500       C  0.54352897  0.14156692  0.87547103     0.98700
C2501       C  0.65826260  0.14923124  0.97249924     0.95100
Al2502     Al  0.58937711  0.15743938  0.67311821     1.55600
O2503       O  0.60832215  0.17132908  0.87984242    -0.76600
C2504       C  0.51776079  0.15982327  0.99754607     0.99300
C2505       C  0.59078705  0.08772260  0.98419846     0.94200
O2506       O  0.60379187  0.09663465  0.95122755    -0.81900
N2507       N  0.62546421  0.22080138  0.84818010    -0.01500
C2508       C  0.62334197  0.25380983  0.83579028    -0.00500
C2509       C  0.65037616  0.26036068  0.80984002    -0.23300
C2510       C  0.66876935  0.23067242  0.80543808    -0.23600
C2511       C  0.65264939  0.20638139  0.82861913    -0.00600
H2512       H  0.65322738  0.28248966  0.79071481     0.13200
H2513       H  0.68842737  0.22608924  0.78314554     0.13300
N2514       N  0.53182328  0.13038045  0.83665887    -0.03100
C2515       C  0.50028189  0.13411951  0.82017378    -0.00500
C2516       C  0.49651288  0.11205091  0.78808044    -0.23300
C2517       C  0.52767055  0.09702948  0.78173477    -0.23600
C2518       C  0.54927297  0.10915256  0.81132860    -0.00600
H2519       H  0.97380196  0.10808282  0.77019222     0.13200
H2520       H  0.53446257  0.08088277  0.75652602     0.13300
O2521       O  0.62957318  0.31826923  0.72940287    -0.81400
C2522       C  0.52198138  0.34836650  0.82994310     0.98000
O2523       O  0.52334730  0.31959479  0.81212393    -0.70500
O2524       O  0.53213375  0.34295853  0.73669034    -0.74100
Al2525     Al  0.55516254  0.30892833  0.76890545     1.49000
C2526       C  0.54801614  0.36126166  0.71119808     0.93200
O2527       O  0.60032339  0.40295303  0.77071654    -0.80300
O2528       O  0.64142146  0.33363035  0.84046401    -0.73900
Al2529     Al  0.61385592  0.35931756  0.75288619     1.90100
O2530       O  0.60407941  0.39378954  0.83496667    -0.72900
O2531       O  0.58455400  0.29851091  0.85403263    -0.72800
O2532       O  0.54845842  0.36044377  0.84564307    -0.78400
O2533       O  0.57711300  0.27228679  0.79675109    -0.76600
O2534       O  0.58764429  0.33798440  0.78707317    -1.12800
O2535       O  0.57950402  0.29390412  0.72088479    -0.72000
C2536       C  0.60974934  0.29965910  0.70881892     0.98700
C2537       C  0.60201982  0.41430454  0.80590007     0.95100
Al2538     Al  0.59377426  0.34538012  0.83978794     1.55600
O2539       O  0.58000532  0.36439068  0.71314995    -0.76600
C2540       C  0.59135810  0.27377308  0.83079244     0.99300
C2541       C  0.66348524  0.34691045  0.81757798     0.94200
O2542       O  0.65461405  0.35999594  0.78465027    -0.81900
N2543       N  0.53056233  0.38157845  0.68155609    -0.03100
C2544       C  0.49751934  0.37954873  0.00260003    -0.00500
C2545       C  0.49103539  0.40663630  0.97672759    -0.23300
C2546       C  0.52079959  0.42498159  0.97228393    -0.23600
C2547       C  0.54505620  0.40877567  0.99536376    -0.00600
H2548       H  0.96889069  0.40954453  0.95764847     0.13200
H2549       H  0.52543198  0.44466909  0.95002635     0.13300
N2550       N  0.62101185  0.28795682  0.67005063    -0.03100
C2551       C  0.61735996  0.25637970  0.98694616    -0.00500
C2552       C  0.63945735  0.25267633  0.95487781    -0.23300
C2553       C  0.65444913  0.28388977  0.94853098    -0.23600
C2554       C  0.64226052  0.30546616  0.97808478    -0.00600
H2555       H  0.64343677  0.22996926  0.93697807     0.13200
H2556       H  0.67061337  0.29073736  0.92333924     0.13300
O2557       O  0.93311447  0.38571646  0.89601952    -0.81400
C2558       C  0.90278028  0.27818644  0.99667806     0.98000
O2559       O  0.93156779  0.27958840  0.97889935    -0.70500
O2560       O  0.90823378  0.28827201  0.90342300    -0.74100
Al2561     Al  0.94227875  0.31136724  0.93564422     1.49000
C2562       C  0.88998921  0.30412090  0.87788666     0.93200
O2563       O  0.84831048  0.35648906  0.93731992    -0.80300
O2564       O  0.91762840  0.39767322  0.67379000    -0.73900
Al2565     Al  0.89200863  0.37000620  0.91951141     1.90100
O2566       O  0.85743868  0.36024355  0.66823966    -0.72900
O2567       O  0.95265850  0.34082311  0.68741723    -0.72800
O2568       O  0.89069010  0.30466018  0.67895994    -0.78400
O2569       O  0.97892128  0.33337922  0.96349403    -0.76600
O2570       O  0.91326023  0.34383870  0.95374578    -1.12800
O2571       O  0.95736711  0.33565423  0.88759921    -0.72000
C2572       C  0.95166954  0.36586925  0.87546315     0.98700
C2573       C  0.83693636  0.35819628  0.97249263     0.95100
Al2574     Al  0.90582258  0.34999066  0.67310936     1.55600
O2575       O  0.88687810  0.33610313  0.87983384    -0.76600
C2576       C  0.97744015  0.34760847  0.99754076     0.99300
C2577       C  0.90441102  0.41970767  0.98419013     0.94200
O2578       O  0.89140392  0.41079565  0.95122071    -0.81900
N2579       N  0.86973859  0.28663167  0.84816870    -0.03100
C2580       C  0.87185969  0.25362356  0.83577719    -0.00500
C2581       C  0.84482511  0.24707361  0.80982765    -0.23300
C2582       C  0.82643243  0.27676228  0.80542798    -0.23600
C2583       C  0.84255314  0.30105227  0.82860947    -0.00600
H2584       H  0.84197299  0.22494499  0.79070194     0.13200
H2585       H  0.80677403  0.28134664  0.78313671     0.13300
N2586       N  0.96337693  0.37705600  0.83665206    -0.03100
C2587       C  0.99491904  0.37331422  0.82016959    -0.00500
C2588       C  0.99869039  0.39538008  0.78807385    -0.23300
C2589       C  0.96753292  0.41040110  0.78172375    -0.23600
C2590       C  0.94592844  0.39828152  0.81131828    -0.00600
H2591       H  0.52140270  0.39934779  0.77018753     0.13200
H2592       H  0.96074265  0.42654625  0.75651313     0.13300
O2593       O  0.68311597  0.63571226  0.06269287    -0.81400
C2594       C  0.65277625  0.52818579  0.16335682     0.98000
O2595       O  0.68156306  0.52958591  0.14557648    -0.70500
O2596       O  0.65822860  0.53826985  0.07010159    -0.74100
Al2597     Al  0.69227526  0.56136348  0.10232019     1.49000
C2598       C  0.63998513  0.55411891  0.04456438     0.93200
O2599       O  0.59831019  0.60649218  0.10399543    -0.80300
O2600       O  0.66762747  0.64767317  0.17379864    -0.73900
Al2601     Al  0.64200900  0.62000553  0.08618624     1.90100
O2602       O  0.60743796  0.61024348  0.16824872    -0.72900
O2603       O  0.70265805  0.59082395  0.18742418    -0.72800
O2604       O  0.64068836  0.55466068  0.17897140    -0.78400
O2605       O  0.72891953  0.58337361  0.13016775    -0.76600
O2606       O  0.66325888  0.59383740  0.12042139    -1.12800
O2607       O  0.70736502  0.58564832  0.05427270    -0.72000
C2608       C  0.70166932  0.61586365  0.04213596     0.98700
C2609       C  0.58693595  0.60819830  0.13916803     0.95100
Al2610     Al  0.65582175  0.59999080  0.17311829     1.55600
O2611       O  0.63687555  0.58610140  0.04650990    -0.76600
C2612       C  0.72743852  0.59760762  0.16421170     0.99300
C2613       C  0.65441159  0.66970778  0.15086474     0.94200
O2614       O  0.64140686  0.66079586  0.11789410    -0.81900
N2615       N  0.61973486  0.53662913  0.01484679    -0.03100
C2616       C  0.62185757  0.50362062  0.33579002    -0.00500
C2617       C  0.59482357  0.49706966  0.30984008    -0.23300
C2618       C  0.57643006  0.52675776  0.30543889    -0.23600
C2619       C  0.59254961  0.55104889  0.32861984    -0.00600
H2620       H  0.59197287  0.97494074  0.29071417     0.13200
H2621       H  0.55677217  0.53134101  0.28314702     0.13300
N2622       N  0.71337546  0.62704965  0.00332349    -0.03100
C2623       C  0.74491733  0.62331072  0.32017210    -0.00500
C2624       C  0.74868635  0.64537806  0.28807748    -0.23300
C2625       C  0.71752830  0.66039816  0.28173054    -0.23600
C2626       C  0.69592564  0.64827596  0.31132524    -0.00600
H2627       H  0.77139732  0.64934657  0.27018936     0.13200
H2628       H  0.71073626  0.67654402  0.25652137     0.13300
O2629       O  0.61562713  0.93916011  0.22940295    -0.81400
C2630       C  0.72321940  0.90906539  0.32994324     0.98000
O2631       O  0.72185319  0.93783652  0.31212274    -0.70500
O2632       O  0.71306653  0.91447169  0.23668969    -0.74100
Al2633     Al  0.69003763  0.94850208  0.26890449     1.49000
C2634       C  0.69718437  0.89616829  0.21119780     0.93200
O2635       O  0.64487742  0.85447695  0.27071711    -0.80300
O2636       O  0.60377959  0.92380004  0.00713125    -0.73900
Al2637     Al  0.63134473  0.89811221  0.25288663     1.90100
O2638       O  0.64112200  0.86364064  0.00163396    -0.72900
O2639       O  0.66064580  0.95892010  0.02069876    -0.72800
O2640       O  0.69674225  0.89698784  0.01230987    -0.78400
O2641       O  0.66808670  0.98514356  0.29674993    -0.76600
O2642       O  0.65755624  0.91944590  0.28707307    -1.12800
O2643       O  0.66569607  0.96352573  0.22088405    -0.72000
C2644       C  0.63545086  0.95777048  0.20881861     0.98700
C2645       C  0.64318145  0.84312556  0.30590077     0.95100
Al2646     Al  0.65142646  0.91205061  0.00645469     1.55600
O2647       O  0.66519531  0.89303905  0.21314995    -0.76600
C2648       C  0.65384169  0.98365766  0.33079172     0.99300
C2649       C  0.58171587  0.91051990  0.31757903     0.94200
O2650       O  0.59058681  0.89743386  0.28465141    -0.81900
N2651       N  0.71463856  0.87585238  0.18155509    -0.03100
C2652       C  0.74768155  0.87788284  0.16926629    -0.00500
C2653       C  0.75416620  0.85079602  0.14339292    -0.23300
C2654       C  0.72440206  0.83245069  0.13894829    -0.23600
C2655       C  0.70014497  0.84865547  0.16202872    -0.00600
H2656       H  0.77631090  0.84788881  0.12431463     0.13200
H2657       H  0.71977033  0.81276337  0.11669012     0.13300
N2658       N  0.62418847  0.96947305  0.17005045    -0.03100
C2659       C  0.62783953  0.00105070  0.15361344    -0.00500
C2660       C  0.60574240  0.00475434  0.12154532    -0.23300
C2661       C  0.59075154  0.97354068  0.11519762    -0.23600
C2662       C  0.60294030  0.95196389  0.14475086    -0.00600
H2663       H  0.60176297  0.52746208  0.10364679     0.13200
H2664       H  0.57458775  0.96669322  0.09000533     0.13300
O2665       O  0.81208689  0.87171730  0.06268744    -0.81400
C2666       C  0.84242099  0.97924633  0.16334553     0.98000
O2667       O  0.81363353  0.97784466  0.14556723    -0.70500
O2668       O  0.83696782  0.96916170  0.07009082    -0.74100
Al2669     Al  0.80292253  0.94606635  0.10231208     1.49000
C2670       C  0.85521227  0.95331290  0.04455388     0.93200
O2671       O  0.89689094  0.90094595  0.10398546    -0.80300
O2672       O  0.82757297  0.85975987  0.17378937    -0.73900
Al2673     Al  0.85319285  0.88742792  0.08617800     1.90100
O2674       O  0.88776280  0.89718958  0.16823867    -0.72900
O2675       O  0.79254222  0.91660874  0.18741803    -0.72800
O2676       O  0.85451075  0.95277255  0.17896079    -0.78400
O2677       O  0.76627978  0.92405414  0.13016214    -0.76600
O2678       O  0.83194102  0.91359484  0.12041299    -1.12800
O2679       O  0.78783409  0.92177946  0.05426693    -0.72000
C2680       C  0.79353155  0.89156428  0.04213123     0.98700
C2681       C  0.90826516  0.89923731  0.13915785     0.95100
Al2682     Al  0.83937851  0.90744215  0.17310956     1.55600
O2683       O  0.85832259  0.92133065  0.04650000    -0.76600
C2684       C  0.76776085  0.90982364  0.16420816     0.99300
C2685       C  0.84079130  0.83772598  0.15085611     0.94200
O2686       O  0.85379870  0.84663859  0.11788688    -0.81900
N2687       N  0.87546387  0.97080221  0.01483665    -0.03100
C2688       C  0.87334278  0.00381019  0.33577883    -0.00500
C2689       C  0.90037792  0.01036013  0.30982947    -0.23300
C2690       C  0.91877086  0.98067144  0.30542979    -0.23600
C2691       C  0.90264948  0.95638128  0.32861070    -0.00600
H2692       H  0.90322998  0.53248855  0.29070364     0.13200
H2693       H  0.93842958  0.97608708  0.28313834     0.13300
N2694       N  0.78182434  0.88037700  0.00332044    -0.03100
C2695       C  0.75028254  0.88411805  0.32017118    -0.00500
C2696       C  0.74651178  0.86205145  0.28807623    -0.23300
C2697       C  0.77766934  0.84703033  0.28172702    -0.23600
C2698       C  0.79927327  0.85915095  0.31132086    -0.00600
H2699       H  0.72380016  0.85808353  0.27019014     0.13200
H2700       H  0.78446003  0.83088483  0.25651674     0.13300
O2701       O  0.87957199  0.56826866  0.22939016    -0.81400
C2702       C  0.77198247  0.59836475  0.32993993     0.98000
O2703       O  0.77334878  0.56959453  0.31211762    -0.70500
O2704       O  0.78213369  0.59296279  0.23668428    -0.74100
Al2705     Al  0.80516270  0.55893066  0.26889596     1.49000
C2706       C  0.79801539  0.61126556  0.21119076     0.93200
O2707       O  0.85032796  0.65295362  0.27070339    -0.80300
O2708       O  0.89142342  0.58363213  0.00711826    -0.73900
Al2709     Al  0.86385726  0.60931763  0.25287372     1.90100
O2710       O  0.85408130  0.64379085  0.00162063    -0.72900
O2711       O  0.83455688  0.54851232  0.02068779    -0.72800
O2712       O  0.79846099  0.61044422  0.01230077    -0.78400
O2713       O  0.82711463  0.52228887  0.29673906    -0.76600
O2714       O  0.83764542  0.58798593  0.28706215    -1.12800
O2715       O  0.82950108  0.54390730  0.22087245    -0.72000
C2716       C  0.85974649  0.54966068  0.20880586     0.98700
C2717       C  0.85202373  0.66430542  0.30588667     0.95100
Al2718     Al  0.84377650  0.59538148  0.00644308     1.55600
O2719       O  0.83000491  0.61439279  0.21313914    -0.76600
C2720       C  0.84135991  0.52377452  0.33078043     0.99300
C2721       C  0.91348728  0.59691068  0.31756468     0.94200
O2722       O  0.90461648  0.60999442  0.28463589    -0.81900
N2723       N  0.78056018  0.63158154  0.18154926    -0.03100
C2724       C  0.74751673  0.62954959  0.16926324    -0.00500
C2725       C  0.74103093  0.65663340  0.14338604    -0.23300
C2726       C  0.77079471  0.67497821  0.13893586    -0.23600
C2727       C  0.79505282  0.65877626  0.16201728    -0.00600
H2728       H  0.71888484  0.65953887  0.12430897     0.13200
H2729       H  0.77542556  0.69466307  0.11667447     0.13300
N2730       N  0.87100731  0.53795911  0.17003665    -0.03100
C2731       C  0.86735587  0.50638191  0.15359935    -0.00500
C2732       C  0.88945279  0.50267834  0.12153065    -0.23300
C2733       C  0.90444406  0.53389180  0.11518292    -0.23600
C2734       C  0.89225551  0.55546822  0.14473685    -0.00600
H2735       H  0.89343353  0.97997055  0.10363265     0.13200
H2736       H  0.92060781  0.54073921  0.08999057     0.13300
O2737       O  0.86562888  0.68916386  0.06272318    -0.81400
C2738       C  0.97321707  0.65906642  0.16327316     0.98000
O2739       O  0.97185201  0.68783620  0.14544962    -0.70500
O2740       O  0.96306671  0.66446710  0.07001769    -0.74100
Al2741     Al  0.94003847  0.69850050  0.10222830     1.49000
C2742       C  0.94718488  0.64616492  0.04452420     0.93200
O2743       O  0.89487244  0.60447893  0.10403682    -0.80300
O2744       O  0.85377620  0.67380140  0.17378468    -0.73900
Al2745     Al  0.88134306  0.64811472  0.08620703     1.90100
O2746       O  0.89111823  0.61364197  0.16828724    -0.72900
O2747       O  0.91064348  0.70892060  0.18735357    -0.72800
O2748       O  0.94673808  0.64698811  0.17896778    -0.78400
O2749       O  0.91808771  0.73514343  0.13007104    -0.76600
O2750       O  0.90755484  0.66944635  0.12039515    -1.12800
O2751       O  0.91570043  0.71352405  0.05420467    -0.72000
C2752       C  0.88545490  0.70777138  0.04213849     0.98700
C2753       C  0.89317677  0.59312730  0.13922022     0.95100
Al2754     Al  0.90142310  0.66205138  0.17310948     1.55600
O2755       O  0.91519518  0.64303924  0.04647196    -0.76600
C2756       C  0.90384213  0.73365861  0.16411267     0.99300
C2757       C  0.83171254  0.66052191  0.15089861     0.94200
O2758       O  0.84058365  0.64743786  0.11796991    -0.81900
N2759       N  0.96464004  0.62584855  0.01488283    -0.03100
C2760       C  0.99768346  0.62788074  0.33593026    -0.00500
C2761       C  0.00416913  0.60079824  0.31005109    -0.23300
C2762       C  0.97440502  0.58245421  0.30559969    -0.23600
C2763       C  0.95014701  0.59865536  0.32868248    -0.00600
H2764       H  0.52631536  0.59789359  0.29097335     0.13200
H2765       H  0.96977424  0.56277091  0.28333680     0.13300
N2766       N  0.87419442  0.71947328  0.00336941    -0.03100
C2767       C  0.87784591  0.75105069  0.32026545    -0.00500
C2768       C  0.85574927  0.75475453  0.28819698    -0.23300
C2769       C  0.84075819  0.72354106  0.28184903    -0.23600
C2770       C  0.85294621  0.70196452  0.31140297    -0.00600
H2771       H  0.85176908  0.77746238  0.27029894     0.13200
H2772       H  0.82459453  0.71669381  0.25665716     0.13300
O2773       O  0.56208194  0.62171837  0.22936127    -0.81400
C2774       C  0.59242344  0.72924443  0.33002319     0.98000
O2775       O  0.56363631  0.72784469  0.31224399    -0.70500
O2776       O  0.58697060  0.71916075  0.23676875    -0.74100
Al2777     Al  0.55292366  0.69606750  0.26898776     1.49000
C2778       C  0.60521358  0.70331167  0.21123092     0.93200
O2779       O  0.64688806  0.65093860  0.27066032    -0.80300
O2780       O  0.57757067  0.60975716  0.00713235    -0.73900
Al2781     Al  0.60318919  0.63742513  0.25285271     1.90100
O2782       O  0.63776070  0.64718556  0.00158054    -0.72900
O2783       O  0.54254122  0.66660707  0.02075812    -0.72800
O2784       O  0.60451145  0.70276939  0.01230373    -0.78400
O2785       O  0.51627931  0.67405803  0.29683601    -0.76600
O2786       O  0.58193972  0.66359321  0.28708834    -1.12800
O2787       O  0.53783359  0.67178253  0.22094044    -0.72000
C2788       C  0.54352886  0.64156686  0.20880430     0.98700
C2789       C  0.65826256  0.64923118  0.30583254     0.95100
Al2790     Al  0.58937718  0.65743938  0.00645149     1.55600
O2791       O  0.60832214  0.67132908  0.21317570    -0.76600
C2792       C  0.51776093  0.65982315  0.33087935     0.99300
C2793       C  0.59078705  0.58772258  0.31753179     0.94200
O2794       O  0.60379192  0.59663462  0.28456081    -0.81900
N2795       N  0.62546435  0.72080143  0.18151341    -0.01500
C2796       C  0.62334201  0.75380991  0.16912357    -0.00500
C2797       C  0.65037613  0.76036083  0.14317313    -0.23300
C2798       C  0.66876932  0.73067253  0.13877120    -0.23600
C2799       C  0.65264947  0.70638142  0.16195226    -0.00600
H2800       H  0.65322687  0.78248975  0.12404750     0.13200
H2801       H  0.68842745  0.72608915  0.11647836     0.13300
N2802       N  0.53182324  0.63038039  0.16999206    -0.03100
C2803       C  0.50028170  0.63411928  0.15350714    -0.00500
C2804       C  0.49651273  0.61205079  0.12141366    -0.23300
C2805       C  0.52767044  0.59702940  0.11506800    -0.23600
C2806       C  0.54927294  0.60915242  0.14466185    -0.00600
H2807       H  0.97380210  0.60808234  0.10352558     0.13200
H2808       H  0.53446260  0.58088212  0.08985944     0.13300
O2809       O  0.62957323  0.81826926  0.06273626    -0.81400
C2810       C  0.52198138  0.84836649  0.16327641     0.98000
O2811       O  0.52334732  0.81959480  0.14545719    -0.70500
O2812       O  0.53213385  0.84295847  0.07002361    -0.74100
Al2813     Al  0.55516251  0.80892834  0.10223878     1.49000
C2814       C  0.54801622  0.86126173  0.04453139     0.93200
O2815       O  0.60032341  0.90295309  0.10404983    -0.80300
O2816       O  0.64142134  0.83363031  0.17379740    -0.73900
Al2817     Al  0.61385594  0.85931754  0.08621956     1.90100
O2818       O  0.60407944  0.89378963  0.16830001    -0.72900
O2819       O  0.58455404  0.79851096  0.18736597    -0.72800
O2820       O  0.54845842  0.86044374  0.17897638    -0.78400
O2821       O  0.57711286  0.77228692  0.13008444    -0.76600
O2822       O  0.58764423  0.83798437  0.12040660    -1.12800
O2823       O  0.57950412  0.79390397  0.05421818    -0.72000
C2824       C  0.60974940  0.79965908  0.04215229     0.98700
C2825       C  0.60201975  0.91430462  0.13923340     0.95100
Al2826     Al  0.59377420  0.84538010  0.17312134     1.55600
O2827       O  0.58000541  0.86439072  0.04648318    -0.76600
C2828       C  0.59135804  0.77377313  0.16412577     0.99300
C2829       C  0.66348516  0.84691048  0.15091137     0.94200
O2830       O  0.65461416  0.85999603  0.11798360    -0.81900
N2831       N  0.53056224  0.88157845  0.01488928    -0.03100
C2832       C  0.49751953  0.87954871  0.33593342    -0.00500
C2833       C  0.49103544  0.90663627  0.31006099    -0.23300
C2834       C  0.52079957  0.92498162  0.30561717    -0.23600
C2835       C  0.54505620  0.90877575  0.32869699    -0.00600
H2836       H  0.96889126  0.90954393  0.29098258     0.13200
H2837       H  0.52543183  0.94466959  0.28335954     0.13300
N2838       N  0.62101187  0.78795682  0.00338401    -0.03100
C2839       C  0.61735994  0.75637977  0.32027966    -0.00500
C2840       C  0.63945719  0.75267633  0.28821124    -0.23300
C2841       C  0.65444913  0.78388975  0.28186446    -0.23600
C2842       C  0.64226050  0.80546621  0.31141825    -0.00600
H2843       H  0.64343657  0.72996937  0.27031186     0.13200
H2844       H  0.67061288  0.79073722  0.25667259     0.13300
O2845       O  0.93311443  0.88571636  0.22935279    -0.81400
C2846       C  0.90278024  0.77818649  0.33001158     0.98000
O2847       O  0.93156765  0.77958850  0.31223279    -0.70500
O2848       O  0.90823385  0.78827215  0.23675636    -0.74100
Al2849     Al  0.94227870  0.81136723  0.26897765     1.49000
C2850       C  0.88998919  0.80412095  0.21122002     0.93200
O2851       O  0.84831046  0.85648898  0.27065340    -0.80300
O2852       O  0.91762837  0.89767321  0.00712330    -0.73900
Al2853     Al  0.89200862  0.87000616  0.25284484     1.90100
O2854       O  0.85743868  0.86024356  0.00157302    -0.72900
O2855       O  0.95265845  0.84082308  0.02075053    -0.72800
O2856       O  0.89069010  0.80466015  0.01229319    -0.78400
O2857       O  0.97892132  0.83337921  0.29682747    -0.76600
O2858       O  0.91326019  0.84383864  0.28707928    -1.12800
O2859       O  0.95736715  0.83565419  0.22093254    -0.72000
C2860       C  0.95166948  0.86586916  0.20879638     0.98700
C2861       C  0.83693637  0.85819637  0.30582610     0.95100
Al2862     Al  0.90582260  0.84999066  0.00644269     1.55600
O2863       O  0.88687795  0.83610313  0.21316724    -0.76600
C2864       C  0.97744013  0.84760846  0.33087417     0.99300
C2865       C  0.90441103  0.91970759  0.31752350     0.94200
O2866       O  0.89140393  0.91079557  0.28455410    -0.81900
N2867       N  0.86973865  0.78663167  0.18150201    -0.03100
C2868       C  0.87185980  0.75362360  0.16911055    -0.00500
C2869       C  0.84482519  0.74707370  0.14316113    -0.23300
C2870       C  0.82643242  0.77676231  0.13876130    -0.23600
C2871       C  0.84255321  0.80105231  0.16194271    -0.00600
H2872       H  0.84197326  0.72494508  0.12403536     0.13200
H2873       H  0.80677400  0.78134658  0.11646994     0.13300
N2874       N  0.96337692  0.87705607  0.16998534    -0.03100
C2875       C  0.99491896  0.87331426  0.15350290    -0.00500
C2876       C  0.99869031  0.89538016  0.12140715    -0.23300
C2877       C  0.96753281  0.91040119  0.11505709    -0.23600
C2878       C  0.94592840  0.89828156  0.14465151    -0.00600
H2879       H  0.52140276  0.89934801  0.10352131     0.13200
H2880       H  0.96074239  0.92654627  0.08984601     0.13300
O2881       O  0.68311596  0.63571218  0.39602625    -0.81400
C2882       C  0.65277627  0.52818578  0.49669020     0.98000
O2883       O  0.68156312  0.52958590  0.47890994    -0.70500
O2884       O  0.65822849  0.53826980  0.40343503    -0.74100
Al2885     Al  0.69227520  0.56136346  0.43565353     1.49000
C2886       C  0.63998510  0.55411876  0.37789781     0.93200
O2887       O  0.59831025  0.60649223  0.43732864    -0.80300
O2888       O  0.66762752  0.64767321  0.50713195    -0.73900
Al2889     Al  0.64200898  0.62000544  0.41951951     1.90100
O2890       O  0.60743794  0.61024350  0.50158207    -0.72900
O2891       O  0.70265811  0.59082400  0.52075736    -0.72800
O2892       O  0.64068830  0.55466065  0.51230471    -0.78400
O2893       O  0.72891960  0.58337365  0.46350111    -0.76600
O2894       O  0.66325879  0.59383732  0.45375471    -1.12800
O2895       O  0.70736488  0.58564829  0.38760598    -0.72000
C2896       C  0.70166935  0.61586367  0.37546939     0.98700
C2897       C  0.58693596  0.60819832  0.47250128     0.95100
Al2898     Al  0.65582176  0.59999079  0.50645164     1.55600
O2899       O  0.63687551  0.58610127  0.37984329    -0.76600
C2900       C  0.72743863  0.59760766  0.49754501     0.99300
C2901       C  0.65441157  0.66970778  0.48419801     0.94200
O2902       O  0.64140679  0.66079578  0.45122734    -0.81900
N2903       N  0.61973492  0.53662910  0.34818016    -0.03100
C2904       C  0.62185759  0.50362071  0.66912317    -0.00500
C2905       C  0.59482355  0.49706969  0.64317327    -0.23300
C2906       C  0.57643003  0.52675776  0.63877208    -0.23600
C2907       C  0.59254960  0.55104890  0.66195299    -0.00600
H2908       H  0.59197293  0.97494074  0.62404751     0.13200
H2909       H  0.55677216  0.53134113  0.61647975     0.13300
N2910       N  0.71337544  0.62704961  0.33665686    -0.03100
C2911       C  0.74491735  0.62331069  0.65350555    -0.00500
C2912       C  0.74868626  0.64537801  0.62141090    -0.23300
C2913       C  0.71752819  0.66039817  0.61506393    -0.23600
C2914       C  0.69592563  0.64827605  0.64465866    -0.00600
H2915       H  0.77139720  0.64934678  0.60352315     0.13200
H2916       H  0.71073615  0.67654408  0.58985469     0.13300
O2917       O  0.61562712  0.93916018  0.56273616    -0.81400
C2918       C  0.72321939  0.90906551  0.66327675     0.98000
O2919       O  0.72185317  0.93783652  0.64545599    -0.70500
O2920       O  0.71306658  0.91447170  0.57002302    -0.74100
Al2921     Al  0.69003766  0.94850208  0.60223791     1.49000
C2922       C  0.69718442  0.89616841  0.54453104     0.93200
O2923       O  0.64487756  0.85447697  0.60405035    -0.80300
O2924       O  0.60377958  0.92379996  0.34046458    -0.73900
Al2925     Al  0.63134481  0.89811223  0.58622002     1.90100
O2926       O  0.64112204  0.86364072  0.33496729    -0.72900
O2927       O  0.66064578  0.95892000  0.35403208    -0.72800
O2928       O  0.69674228  0.89698782  0.34564315    -0.78400
O2929       O  0.66808674  0.98514357  0.63008328    -0.76600
O2930       O  0.65755637  0.91944588  0.62040655    -1.12800
O2931       O  0.66569607  0.96352571  0.55421733    -0.72000
C2932       C  0.63545084  0.95777054  0.54215189     0.98700
C2933       C  0.64318153  0.84312554  0.63923403     0.95100
Al2934     Al  0.65142644  0.91205054  0.33978805     1.55600
O2935       O  0.66519537  0.89303902  0.54648332    -0.76600
C2936       C  0.65384167  0.98365770  0.66412496     0.99300
C2937       C  0.58171585  0.91051999  0.65091243     0.94200
O2938       O  0.59058682  0.89743385  0.61798490    -0.81900
N2939       N  0.71463862  0.87585231  0.51488848    -0.03100
C2940       C  0.74768162  0.87788283  0.50259946    -0.00500
C2941       C  0.75416618  0.85079598  0.47672608    -0.23300
C2942       C  0.72440213  0.83245057  0.47228159    -0.23600
C2943       C  0.70014502  0.84865543  0.49536208    -0.00600
H2944       H  0.77631095  0.84788846  0.45764744     0.13200
H2945       H  0.71977052  0.81276314  0.45002369     0.13300
N2946       N  0.62418844  0.96947311  0.50338383    -0.03100
C2947       C  0.62783960  0.00105073  0.48694675    -0.00500
C2948       C  0.60574240  0.00475436  0.45487873    -0.23300
C2949       C  0.59075156  0.97354068  0.44853107    -0.23600
C2950       C  0.60294035  0.95196389  0.47808429    -0.00600
H2951       H  0.60176291  0.52746209  0.43697981     0.13200
H2952       H  0.57458764  0.96669321  0.42333933     0.13300
O2953       O  0.81208684  0.87171729  0.39602084    -0.81400
C2954       C  0.84242093  0.97924635  0.49667886     0.98000
O2955       O  0.81363353  0.97784468  0.47890051    -0.70500
O2956       O  0.83696766  0.96916175  0.40342416    -0.74100
Al2957     Al  0.80292250  0.94606636  0.43564542     1.49000
C2958       C  0.85521220  0.95331293  0.37788725     0.93200
O2959       O  0.89689109  0.90094592  0.43731893    -0.80300
O2960       O  0.82757300  0.85975983  0.50712268    -0.73900
Al2961     Al  0.85319285  0.88742797  0.41951134     1.90100
O2962       O  0.88776269  0.89718958  0.50157199    -0.72900
O2963       O  0.79254222  0.91660876  0.52075135    -0.72800
O2964       O  0.85451068  0.95277255  0.51229402    -0.78400
O2965       O  0.76627969  0.92405415  0.46349542    -0.76600
O2966       O  0.83194096  0.91359482  0.45374626    -1.12800
O2967       O  0.78783405  0.92177945  0.38760022    -0.72000
C2968       C  0.79353155  0.89156425  0.37546460     0.98700
C2969       C  0.90826518  0.89923734  0.47249132     0.95100
Al2970     Al  0.83937846  0.90744212  0.50644283     1.55600
O2971       O  0.85832257  0.92133071  0.37983334    -0.76600
C2972       C  0.76776089  0.90982360  0.49754142     0.99300
C2973       C  0.84079127  0.83772595  0.48418945     0.94200
O2974       O  0.85379872  0.84663859  0.45122025    -0.81900
N2975       N  0.87546379  0.97080214  0.34816995    -0.03100
C2976       C  0.87334269  0.00381036  0.66911213    -0.00500
C2977       C  0.90037773  0.01036038  0.64316281    -0.23300
C2978       C  0.91877064  0.98067170  0.63876319    -0.23600
C2979       C  0.90264948  0.95638140  0.66194431    -0.00600
H2980       H  0.90323000  0.53248857  0.62403708     0.13200
H2981       H  0.93842934  0.97608759  0.61647216     0.13300
N2982       N  0.78182442  0.88037699  0.33665385    -0.03100
C2983       C  0.75028243  0.88411809  0.65350442    -0.00500
C2984       C  0.74651157  0.86205134  0.62140958    -0.23300
C2985       C  0.77766911  0.84703023  0.61506011    -0.23600
C2986       C  0.79927317  0.85915103  0.64465392    -0.00600
H2987       H  0.72379957  0.85808354  0.60352340     0.13200
H2988       H  0.78445985  0.83088466  0.58984975     0.13300
O2989       O  0.87957201  0.56826856  0.56272345    -0.81400
C2990       C  0.77198247  0.59836464  0.66327308     0.98000
O2991       O  0.77334861  0.56959440  0.64545066    -0.70500
O2992       O  0.78213372  0.59296274  0.57001746    -0.74100
Al2993     Al  0.80516270  0.55893056  0.60222922     1.49000
C2994       C  0.79801544  0.61126549  0.54452397     0.93200
O2995       O  0.85032797  0.65295360  0.60403670    -0.80300
O2996       O  0.89142335  0.58363216  0.34045160    -0.73900
Al2997     Al  0.86385725  0.60931761  0.58620703     1.90100
O2998       O  0.85408120  0.64379091  0.33495395    -0.72900
O2999       O  0.83455684  0.54851226  0.35402102    -0.72800
O3000       O  0.79846089  0.61044427  0.34563420    -0.78400
O3001       O  0.82711458  0.52228877  0.63007232    -0.76600
O3002       O  0.83764540  0.58798593  0.62039554    -1.12800
O3003       O  0.82950113  0.54390724  0.55420576    -0.72000
C3004       C  0.85974652  0.54966056  0.54213921     0.98700
C3005       C  0.85202374  0.66430534  0.63922001     0.95100
Al3006     Al  0.84377648  0.59538150  0.33977639     1.55600
O3007       O  0.83000495  0.61439275  0.54647251    -0.76600
C3008       C  0.84135992  0.52377456  0.66411369     0.99300
C3009       C  0.91348728  0.59691057  0.65089804     0.94200
O3010       O  0.90461639  0.60999432  0.61796925    -0.81900
N3011       N  0.78056022  0.63158158  0.51488250    -0.03100
C3012       C  0.74751680  0.62954965  0.50259646    -0.00500
C3013       C  0.74103097  0.65663348  0.47671914    -0.23300
C3014       C  0.77079471  0.67497834  0.47226905    -0.23600
C3015       C  0.79505282  0.65877628  0.49535038    -0.00600
H3016       H  0.71888481  0.65953894  0.45764226     0.13200
H3017       H  0.77542563  0.69466353  0.45000755     0.13300
N3018       N  0.87100726  0.53795917  0.50336999    -0.03100
C3019       C  0.86735592  0.50638191  0.48693273    -0.00500
C3020       C  0.88945280  0.50267823  0.45486405    -0.23300
C3021       C  0.90444390  0.53389182  0.44851635    -0.23600
C3022       C  0.89225553  0.55546825  0.47807037    -0.00600
H3023       H  0.89343335  0.97997048  0.43696614     0.13200
H3024       H  0.92060763  0.54073939  0.42332435     0.13300
O3025       O  0.86562890  0.68916386  0.39605652    -0.81400
C3026       C  0.97321707  0.65906639  0.49660648     0.98000
O3027       O  0.97185203  0.68783614  0.47878290    -0.70500
O3028       O  0.96306672  0.66446712  0.40335096    -0.74100
Al3029     Al  0.94003852  0.69850051  0.43556168     1.49000
C3030       C  0.94718485  0.64616496  0.37785753     0.93200
O3031       O  0.89487248  0.60447893  0.43737009    -0.80300
O3032       O  0.85377621  0.67380133  0.50711788    -0.73900
Al3033     Al  0.88134312  0.64811474  0.41954034     1.90100
O3034       O  0.89111816  0.61364199  0.50162065    -0.72900
O3035       O  0.91064347  0.70892052  0.52068692    -0.72800
O3036       O  0.94673802  0.64698797  0.51230098    -0.78400
O3037       O  0.91808772  0.73514340  0.46340453    -0.76600
O3038       O  0.90755497  0.66944631  0.45372853    -1.12800
O3039       O  0.91570044  0.71352406  0.38753794    -0.72000
C3040       C  0.88545486  0.70777156  0.37547189     0.98700
C3041       C  0.89317667  0.59312735  0.47255357     0.95100
Al3042     Al  0.90142309  0.66205136  0.50644283     1.55600
O3043       O  0.91519517  0.64303931  0.37980530    -0.76600
C3044       C  0.90384209  0.73365856  0.49744609     0.99300
C3045       C  0.83171253  0.66052190  0.48423185     0.94200
O3046       O  0.84058367  0.64743788  0.45130322    -0.81900
N3047       N  0.96463999  0.62584863  0.34821624    -0.03100
C3048       C  0.99768338  0.62788088  0.66926366    -0.00500
C3049       C  0.00416909  0.60079825  0.64338463    -0.23300
C3050       C  0.97440494  0.58245424  0.63893311    -0.23600
C3051       C  0.95014698  0.59865536  0.66201600    -0.00600
H3052       H  0.52631533  0.59789342  0.62430737     0.13200
H3053       H  0.96977431  0.56277091  0.61667026     0.13300
N3054       N  0.87419439  0.71947331  0.33670265    -0.03100
C3055       C  0.87784591  0.75105061  0.65359876    -0.00500
C3056       C  0.85574925  0.75475439  0.62153036    -0.23300
C3057       C  0.84075824  0.72354093  0.61518242    -0.23600
C3058       C  0.85294633  0.70196442  0.64473620    -0.00600
H3059       H  0.85176891  0.77746216  0.60363267     0.13200
H3060       H  0.82459465  0.71669374  0.58999030     0.13300
O3061       O  0.56208194  0.62171842  0.56269458    -0.81400
C3062       C  0.59242347  0.72924444  0.66335651     0.98000
O3063       O  0.56363630  0.72784481  0.64557741    -0.70500
O3064       O  0.58697052  0.71916075  0.57010211    -0.74100
Al3065     Al  0.55292368  0.69606753  0.60232107     1.49000
C3066       C  0.60521355  0.70331169  0.54456434     0.93200
O3067       O  0.64688808  0.65093845  0.60399372    -0.80300
O3068       O  0.57757066  0.60975712  0.34046570    -0.73900
Al3069     Al  0.60318921  0.63742507  0.58618603     1.90100
O3070       O  0.63776069  0.64718547  0.33491386    -0.72900
O3071       O  0.54254114  0.66660704  0.35409151    -0.72800
O3072       O  0.60451147  0.70276931  0.34563705    -0.78400
O3073       O  0.51627939  0.67405806  0.63016933    -0.76600
O3074       O  0.58193978  0.66359321  0.62042164    -1.12800
O3075       O  0.53783360  0.67178259  0.55427374    -0.72000
C3076       C  0.54352882  0.64156688  0.54213764     0.98700
C3077       C  0.65826254  0.64923121  0.63916599     0.95100
Al3078     Al  0.58937712  0.65743939  0.33978486     1.55600
O3079       O  0.60832223  0.67132905  0.54650912    -0.76600
C3080       C  0.51776095  0.65982324  0.66421269     0.99300
C3081       C  0.59078702  0.58772258  0.65086504     0.94200
O3082       O  0.60379187  0.59663463  0.61789412    -0.81900
N3083       N  0.62546423  0.72080143  0.51484676    -0.01500
C3084       C  0.62334200  0.75380995  0.50245685    -0.00500
C3085       C  0.65037616  0.76036083  0.47650650    -0.23300
C3086       C  0.66876930  0.73067250  0.47210470    -0.23600
C3087       C  0.65264940  0.70638145  0.49528580    -0.00600
H3088       H  0.65322711  0.78248981  0.45738073     0.13200
H3089       H  0.68842740  0.72608897  0.44981227     0.13300
N3090       N  0.53182314  0.63038034  0.50332539    -0.03100
C3091       C  0.50028168  0.63411939  0.48684029    -0.00500
C3092       C  0.49651270  0.61205074  0.45474687    -0.23300
C3093       C  0.52767036  0.59702934  0.44840111    -0.23600
C3094       C  0.54927288  0.60915242  0.47799498    -0.00600
H3095       H  0.97380206  0.60808266  0.43685843     0.13200
H3096       H  0.53446274  0.58088207  0.42319213     0.13300
O3097       O  0.62957323  0.81826936  0.39606965    -0.81400
C3098       C  0.52198137  0.84836651  0.49660979     0.98000
O3099       O  0.52334733  0.81959479  0.47879069    -0.70500
O3100       O  0.53213387  0.84295850  0.40335696    -0.74100
Al3101     Al  0.55516250  0.80892835  0.43557215     1.49000
C3102       C  0.54801625  0.86126171  0.37786468     0.93200
O3103       O  0.60032348  0.90295307  0.43738312    -0.80300
O3104       O  0.64142137  0.83363030  0.50713080    -0.73900
Al3105     Al  0.61385596  0.85931755  0.41955293     1.90100
O3106       O  0.60407943  0.89378960  0.50163341    -0.72900
O3107       O  0.58455405  0.79851087  0.52069929    -0.72800
O3108       O  0.54845839  0.86044367  0.51230982    -0.78400
O3109       O  0.57711290  0.77228694  0.46341779    -0.76600
O3110       O  0.58764426  0.83798436  0.45373994    -1.12800
O3111       O  0.57950402  0.79390398  0.38755154    -0.72000
C3112       C  0.60974935  0.79965914  0.37548575     0.98700
C3113       C  0.60201975  0.91430459  0.47256674     0.95100
Al3114     Al  0.59377421  0.84538008  0.50645470     1.55600
O3115       O  0.58000541  0.86439081  0.37981658    -0.76600
C3116       C  0.59135811  0.77377312  0.49745907     0.99300
C3117       C  0.66348516  0.84691052  0.48424474     0.94200
O3118       O  0.65461416  0.85999597  0.45131690    -0.81900
N3119       N  0.53056233  0.88157848  0.34822262    -0.03100
C3120       C  0.49751946  0.87954878  0.66926673    -0.00500
C3121       C  0.49103542  0.90663629  0.64339424    -0.23300
C3122       C  0.52079959  0.92498157  0.63895061    -0.23600
C3123       C  0.54505618  0.90877574  0.66203048    -0.00600
H3124       H  0.96889127  0.90954390  0.62431523     0.13200
H3125       H  0.52543203  0.94466957  0.61669352     0.13300
N3126       N  0.62101176  0.78795695  0.33671743    -0.03100
C3127       C  0.61736000  0.75637966  0.65361284    -0.00500
C3128       C  0.63945725  0.75267618  0.62154448    -0.23300
C3129       C  0.65444918  0.78388958  0.61519756    -0.23600
C3130       C  0.64226058  0.80546613  0.64475136    -0.00600
H3131       H  0.64343667  0.72996866  0.60364537     0.13200
H3132       H  0.67061293  0.79073716  0.59000531     0.13300
O3133       O  0.93311442  0.88571639  0.56268617    -0.81400
C3134       C  0.90278026  0.77818646  0.66334476     0.98000
O3135       O  0.93156768  0.77958847  0.64556603    -0.70500
O3136       O  0.90823391  0.78827208  0.57008973    -0.74100
Al3137     Al  0.94227868  0.81136727  0.60231103     1.49000
C3138       C  0.88998931  0.80412093  0.54455328     0.93200
O3139       O  0.84831039  0.85648905  0.60398668    -0.80300
O3140       O  0.91762836  0.89767308  0.34045667    -0.73900
Al3141     Al  0.89200858  0.87000623  0.58617815     1.90100
O3142       O  0.85743871  0.86024350  0.33490644    -0.72900
O3143       O  0.95265843  0.84082304  0.35408391    -0.72800
O3144       O  0.89069004  0.80466022  0.34562661    -0.78400
O3145       O  0.97892123  0.83337918  0.63016084    -0.76600
O3146       O  0.91326015  0.84383876  0.62041254    -1.12800
O3147       O  0.95736718  0.83565424  0.55426590    -0.72000
C3148       C  0.95166946  0.86586921  0.54212976     0.98700
C3149       C  0.83693634  0.85819642  0.63915936     0.95100
Al3150     Al  0.90582259  0.84999061  0.33977615     1.55600
O3151       O  0.88687792  0.83610312  0.54650052    -0.76600
C3152       C  0.97744007  0.84760850  0.66420750     0.99300
C3153       C  0.90441102  0.91970770  0.65085692     0.94200
O3154       O  0.89140401  0.91079561  0.61788748    -0.81900
N3155       N  0.86973858  0.78663165  0.51483540    -0.03100
C3156       C  0.87185977  0.75362360  0.50244385    -0.00500
C3157       C  0.84482522  0.74707369  0.47649438    -0.23300
C3158       C  0.82643255  0.77676237  0.47209454    -0.23600
C3159       C  0.84255313  0.80105233  0.49527616    -0.00600
H3160       H  0.84197338  0.72494510  0.45736857     0.13200
H3161       H  0.80677427  0.78134669  0.44980308     0.13300
N3162       N  0.96337686  0.87705607  0.50331876    -0.03100
C3163       C  0.99491893  0.87331427  0.48683636    -0.00500
C3164       C  0.99869037  0.89538001  0.45474066    -0.23300
C3165       C  0.96753288  0.91040107  0.44839064    -0.23600
C3166       C  0.94592838  0.89828152  0.47798501    -0.00600
H3167       H  0.52140277  0.89934757  0.43685471     0.13200
H3168       H  0.96074267  0.92654623  0.42317990     0.13300
O3169       O  0.68311591  0.63571218  0.72935957    -0.81400
C3170       C  0.65277627  0.52818574  0.83002362     0.98000
O3171       O  0.68156310  0.52958583  0.81224328    -0.70500
O3172       O  0.65822855  0.53826984  0.73676838    -0.74100
Al3173     Al  0.69227523  0.56136347  0.76898693     1.49000
C3174       C  0.63998505  0.55411881  0.71123119     0.93200
O3175       O  0.59831020  0.60649207  0.77066210    -0.80300
O3176       O  0.66762756  0.64767313  0.84046535    -0.73900
Al3177     Al  0.64200896  0.62000544  0.75285294     1.90100
O3178       O  0.60743800  0.61024357  0.83491531    -0.72900
O3179       O  0.70265810  0.59082400  0.85409083    -0.72800
O3180       O  0.64068821  0.55466069  0.84563802    -0.78400
O3181       O  0.72891954  0.58337362  0.79683458    -0.76600
O3182       O  0.66325882  0.59383731  0.78708814    -1.12800
O3183       O  0.70736497  0.58564837  0.72093942    -0.72000
C3184       C  0.70166930  0.61586367  0.70880270     0.98700
C3185       C  0.58693594  0.60819820  0.80583468     0.95100
Al3186     Al  0.65582175  0.59999078  0.83978499     1.55600
O3187       O  0.63687555  0.58610130  0.71317654    -0.76600
C3188       C  0.72743859  0.59760763  0.83087846     0.99300
C3189       C  0.65441156  0.66970773  0.81753145     0.94200
O3190       O  0.64140681  0.66079581  0.78456074    -0.81900
N3191       N  0.61973486  0.53662906  0.68151355    -0.03100
C3192       C  0.62185753  0.50362075  0.00245656    -0.00500
C3193       C  0.59482350  0.49706974  0.97650660    -0.23300
C3194       C  0.57642997  0.52675784  0.97210547    -0.23600
C3195       C  0.59254952  0.55104897  0.99528633    -0.00600
H3196       H  0.59197295  0.97494091  0.95738088     0.13200
H3197       H  0.55677158  0.53134117  0.94981355     0.13300
N3198       N  0.71337542  0.62704954  0.66999019    -0.03100
C3199       C  0.74491736  0.62331075  0.98683871    -0.00500
C3200       C  0.74868623  0.64537816  0.95474400    -0.23300
C3201       C  0.71752820  0.66039830  0.94839717    -0.23600
C3202       C  0.69592563  0.64827604  0.97799177    -0.00600
H3203       H  0.77139730  0.64934701  0.93685629     0.13200
H3204       H  0.71073585  0.67654422  0.92318743     0.13300
O3205       O  0.61562714  0.93916013  0.89606956    -0.81400
C3206       C  0.72321936  0.90906546  0.99660995     0.98000
O3207       O  0.72185315  0.93783657  0.97878933    -0.70500
O3208       O  0.71306656  0.91447169  0.90335634    -0.74100
Al3209     Al  0.69003768  0.94850206  0.93557114     1.49000
C3210       C  0.69718443  0.89616837  0.87786437     0.93200
O3211       O  0.64487759  0.85447690  0.93738378    -0.80300
O3212       O  0.60377959  0.92380001  0.67379795    -0.73900
Al3213     Al  0.63134480  0.89811222  0.91955333     1.90100
O3214       O  0.64112207  0.86364065  0.66830064    -0.72900
O3215       O  0.66064582  0.95892009  0.68736534    -0.72800
O3216       O  0.69674221  0.89698788  0.67897651    -0.78400
O3217       O  0.66808678  0.98514355  0.96341659    -0.76600
O3218       O  0.65755641  0.91944584  0.95373973    -1.12800
O3219       O  0.66569610  0.96352576  0.88755075    -0.72000
C3220       C  0.63545092  0.95777045  0.87548529     0.98700
C3221       C  0.64318148  0.84312548  0.97256743     0.95100
Al3222     Al  0.65142646  0.91205058  0.67312145     1.55600
O3223       O  0.66519535  0.89303903  0.87981658    -0.76600
C3224       C  0.65384170  0.98365769  0.99745833     0.99300
C3225       C  0.58171587  0.91051994  0.98424573     0.94200
O3226       O  0.59058683  0.89743375  0.95131817    -0.81900
N3227       N  0.71463870  0.87585231  0.84822177    -0.03100
C3228       C  0.74768176  0.87788279  0.83593271    -0.00500
C3229       C  0.75416643  0.85079602  0.81005925    -0.23300
C3230       C  0.72440234  0.83245062  0.80561478    -0.23600
C3231       C  0.70014513  0.84865544  0.82869537    -0.00600
H3232       H  0.77631148  0.84788878  0.79098042     0.13200
H3233       H  0.71977058  0.81276339  0.78335672     0.13300
N3234       N  0.62418843  0.96947303  0.83671723    -0.03100
C3235       C  0.62783964  0.00105057  0.82028017    -0.00500
C3236       C  0.60574244  0.00475411  0.78821200    -0.23300
C3237       C  0.59075148  0.97354048  0.78186436    -0.23600
C3238       C  0.60294035  0.95196380  0.81141760    -0.00600
H3239       H  0.60176302  0.52746157  0.77031357     0.13200
H3240       H  0.57458778  0.96669319  0.75667200     0.13300
O3241       O  0.81208692  0.87171725  0.72935406    -0.81400
C3242       C  0.84242103  0.97924638  0.83001221     0.98000
O3243       O  0.81363364  0.97784468  0.81223393    -0.70500
O3244       O  0.83696773  0.96916171  0.73675748    -0.74100
Al3245     Al  0.80292253  0.94606638  0.76897876     1.49000
C3246       C  0.85521220  0.95331291  0.71122059     0.93200
O3247       O  0.89689107  0.90094597  0.77065212    -0.80300
O3248       O  0.82757296  0.85975981  0.84045602    -0.73900
Al3249     Al  0.85319284  0.88742798  0.75284469     1.90100
O3250       O  0.88776269  0.89718952  0.83490528    -0.72900
O3251       O  0.79254223  0.91660879  0.85408460    -0.72800
O3252       O  0.85451073  0.95277256  0.84562735    -0.78400
O3253       O  0.76627970  0.92405413  0.79682877    -0.76600
O3254       O  0.83194096  0.91359489  0.78707963    -1.12800
O3255       O  0.78783408  0.92177949  0.72093359    -0.72000
C3256       C  0.79353157  0.89156426  0.70879787     0.98700
C3257       C  0.90826517  0.89923739  0.80582454     0.95100
Al3258     Al  0.83937843  0.90744210  0.83977615     1.55600
O3259       O  0.85832253  0.92133067  0.71316673    -0.76600
C3260       C  0.76776085  0.90982364  0.83087478     0.99300
C3261       C  0.84079120  0.83772593  0.81752273     0.94200
O3262       O  0.85379871  0.84663858  0.78455354    -0.81900
N3263       N  0.87546377  0.97080220  0.68150333    -0.03100
C3264       C  0.87334278  0.00381033  0.00244547    -0.00500
C3265       C  0.90037779  0.01036033  0.97649606    -0.23300
C3266       C  0.91877070  0.98067173  0.97209636    -0.23600
C3267       C  0.90264953  0.95638143  0.99527741    -0.00600
H3268       H  0.90322983  0.53248898  0.95737011     0.13200
H3269       H  0.93842934  0.97608751  0.94980487     0.13300
N3270       N  0.78182433  0.88037699  0.66998709    -0.03100
C3271       C  0.75028238  0.88411800  0.98683783    -0.00500
C3272       C  0.74651164  0.86205146  0.95474284    -0.23300
C3273       C  0.77766918  0.84703038  0.94839338    -0.23600
C3274       C  0.79927317  0.85915099  0.97798731    -0.00600
H3275       H  0.72379969  0.85808371  0.93685659     0.13200
H3276       H  0.78445998  0.83088492  0.92318299     0.13300
O3277       O  0.87957192  0.56826854  0.89605679    -0.81400
C3278       C  0.77198253  0.59836477  0.99660649     0.98000
O3279       O  0.77334873  0.56959454  0.97878422    -0.70500
O3280       O  0.78213376  0.59296272  0.90335090    -0.74100
Al3281     Al  0.80516272  0.55893058  0.93556260     1.49000
C3282       C  0.79801535  0.61126555  0.87785740     0.93200
O3283       O  0.85032799  0.65295360  0.93737008    -0.80300
O3284       O  0.89142341  0.58363210  0.67378503    -0.73900
Al3285     Al  0.86385723  0.60931755  0.91954035     1.90100
O3286       O  0.85408118  0.64379079  0.66828726    -0.72900
O3287       O  0.83455674  0.54851220  0.68735445    -0.72800
O3288       O  0.79846088  0.61044417  0.67896745    -0.78400
O3289       O  0.82711466  0.52228870  0.96340572    -0.76600
O3290       O  0.83764543  0.58798584  0.95372882    -1.12800
O3291       O  0.82950113  0.54390720  0.88753919    -0.72000
C3292       C  0.85974644  0.54966066  0.87547249     0.98700
C3293       C  0.85202377  0.66430538  0.97255340     0.95100
Al3294     Al  0.84377646  0.59538147  0.67310983     1.55600
O3295       O  0.83000484  0.61439279  0.87980578    -0.76600
C3296       C  0.84135988  0.52377450  0.99744716     0.99300
C3297       C  0.91348732  0.59691065  0.98423133     0.94200
O3298       O  0.90461646  0.60999426  0.95130249    -0.81900
N3299       N  0.78056017  0.63158148  0.84821586    -0.03100
C3300       C  0.74751674  0.62954955  0.83592991    -0.00500
C3301       C  0.74103091  0.65663331  0.81005266    -0.23300
C3302       C  0.77079470  0.67497821  0.80560239    -0.23600
C3303       C  0.79505282  0.65877624  0.82868393    -0.00600
H3304       H  0.71888487  0.65953845  0.79097556     0.13200
H3305       H  0.77542552  0.69466306  0.78334088     0.13300
N3306       N  0.87100722  0.53795918  0.83670331    -0.03100
C3307       C  0.86735582  0.50638198  0.82026606    -0.00500
C3308       C  0.88945284  0.50267834  0.78819750    -0.23300
C3309       C  0.90444398  0.53389196  0.78184975    -0.23600
C3310       C  0.89225551  0.55546830  0.81140370    -0.00600
H3311       H  0.89343335  0.97997100  0.77029951     0.13200
H3312       H  0.92060781  0.54073922  0.75665791     0.13300
O3313       O  0.86562893  0.68916390  0.72938985    -0.81400
C3314       C  0.97321707  0.65906640  0.82993988     0.98000
O3315       O  0.97185204  0.68783613  0.81211638    -0.70500
O3316       O  0.96306676  0.66446718  0.73668431    -0.74100
Al3317     Al  0.94003857  0.69850053  0.76889496     1.49000
C3318       C  0.94718487  0.64616500  0.71119094     0.93200
O3319       O  0.89487248  0.60447891  0.77070343    -0.80300
O3320       O  0.85377629  0.67380137  0.84045126    -0.73900
Al3321     Al  0.88134316  0.64811477  0.75287367     1.90100
O3322       O  0.89111817  0.61364198  0.83495387    -0.72900
O3323       O  0.91064352  0.70892062  0.85402019    -0.72800
O3324       O  0.94673803  0.64698811  0.84563438    -0.78400
O3325       O  0.91808778  0.73514342  0.79673773    -0.76600
O3326       O  0.90755497  0.66944646  0.78706177    -1.12800
O3327       O  0.91570047  0.71352407  0.72087127    -0.72000
C3328       C  0.88545490  0.70777149  0.70880513     0.98700
C3329       C  0.89317669  0.59312733  0.80588686     0.95100
Al3330     Al  0.90142312  0.66205145  0.83977607     1.55600
O3331       O  0.91519518  0.64303938  0.71313861    -0.76600
C3332       C  0.90384211  0.73365859  0.83077929     0.99300
C3333       C  0.83171262  0.66052178  0.81756527     0.94200
O3334       O  0.84058373  0.64743789  0.78463649    -0.81900
N3335       N  0.96463995  0.62584873  0.68154965    -0.03100
C3336       C  0.99768350  0.62788081  0.00259662    -0.00500
C3337       C  0.00416926  0.60079823  0.97671757    -0.23300
C3338       C  0.97440517  0.58245422  0.97226610    -0.23600
C3339       C  0.95014708  0.59865523  0.99534902    -0.00600
H3340       H  0.52631547  0.59789358  0.95764009     0.13200
H3341       H  0.96977430  0.56277045  0.95000325     0.13300
N3342       N  0.87419441  0.71947330  0.67003598    -0.03100
C3343       C  0.87784587  0.75105062  0.98693225    -0.00500
C3344       C  0.85574928  0.75475445  0.95486372    -0.23300
C3345       C  0.84075827  0.72354099  0.94851576    -0.23600
C3346       C  0.85294629  0.70196446  0.97806964    -0.00600
H3347       H  0.85176890  0.77746221  0.93696607     0.13200
H3348       H  0.82459465  0.71669387  0.92332366     0.13300
O3349       O  0.56208201  0.62171843  0.89602794    -0.81400
C3350       C  0.59242343  0.72924452  0.99668987     0.98000
O3351       O  0.56363632  0.72784477  0.97891061    -0.70500
O3352       O  0.58697061  0.71916085  0.90343536    -0.74100
Al3353     Al  0.55292370  0.69606745  0.93565437     1.49000
C3354       C  0.60521349  0.70331170  0.87789756     0.93200
O3355       O  0.64688801  0.65093855  0.93732707    -0.80300
O3356       O  0.57757076  0.60975715  0.67379896    -0.73900
Al3357     Al  0.60318924  0.63742505  0.91951938     1.90100
O3358       O  0.63776067  0.64718548  0.66824729    -0.72900
O3359       O  0.54254122  0.66660707  0.68742475    -0.72800
O3360       O  0.60451142  0.70276928  0.67897043    -0.78400
O3361       O  0.51627934  0.67405802  0.96350273    -0.76600
O3362       O  0.58193988  0.66359317  0.95375490    -1.12800
O3363       O  0.53783360  0.67178244  0.88760708    -0.72000
C3364       C  0.54352888  0.64156683  0.87547097     0.98700
C3365       C  0.65826254  0.64923118  0.97249927     0.95100
Al3366     Al  0.58937714  0.65743938  0.67311822     1.55600
O3367       O  0.60832216  0.67132904  0.87984246    -0.76600
C3368       C  0.51776090  0.65982325  0.99754609     0.99300
C3369       C  0.59078702  0.58772261  0.98419846     0.94200
O3370       O  0.60379183  0.59663464  0.95122749    -0.81900
N3371       N  0.62546425  0.72080140  0.84818011    -0.01500
C3372       C  0.62334193  0.75380986  0.83579030    -0.00500
C3373       C  0.65037614  0.76036076  0.80984010    -0.23300
C3374       C  0.66876933  0.73067248  0.80543814    -0.23600
C3375       C  0.65264939  0.70638140  0.82861913    -0.00600
H3376       H  0.65322711  0.78248963  0.79071472     0.13200
H3377       H  0.68842743  0.72608937  0.78314563     0.13300
N3378       N  0.53182318  0.63038043  0.83665878    -0.03100
C3379       C  0.50028170  0.63411943  0.82017374    -0.00500
C3380       C  0.49651264  0.61205092  0.78808042    -0.23300
C3381       C  0.52767033  0.59702948  0.78173473    -0.23600
C3382       C  0.54927287  0.60915253  0.81132855    -0.00600
H3383       H  0.97380205  0.60808286  0.77019234     0.13200
H3384       H  0.53446251  0.58088273  0.75652607     0.13300
O3385       O  0.62957330  0.81826932  0.72940283    -0.81400
C3386       C  0.52198137  0.84836643  0.82994313     0.98000
O3387       O  0.52334735  0.81959475  0.81212388    -0.70500
O3388       O  0.53213388  0.84295851  0.73669030    -0.74100
Al3389     Al  0.55516254  0.80892831  0.76890540     1.49000
C3390       C  0.54801620  0.86126170  0.71119803     0.93200
O3391       O  0.60032350  0.90295311  0.77071653    -0.80300
O3392       O  0.64142136  0.83363035  0.84046400    -0.73900
Al3393     Al  0.61385593  0.85931753  0.75288622     1.90100
O3394       O  0.60407942  0.89378957  0.83496668    -0.72900
O3395       O  0.58455406  0.79851093  0.85403263    -0.72800
O3396       O  0.54845840  0.86044372  0.84564305    -0.78400
O3397       O  0.57711304  0.77228686  0.79675101    -0.76600
O3398       O  0.58764424  0.83798430  0.78707317    -1.12800
O3399       O  0.57950407  0.79390416  0.72088479    -0.72000
C3400       C  0.60974943  0.79965914  0.70881895     0.98700
C3401       C  0.60201972  0.91430458  0.80590011     0.95100
Al3402     Al  0.59377421  0.84538010  0.83978794     1.55600
O3403       O  0.58000531  0.86439079  0.71314997    -0.76600
C3404       C  0.59135806  0.77377307  0.83079244     0.99300
C3405       C  0.66348521  0.84691044  0.81757797     0.94200
O3406       O  0.65461414  0.85999599  0.78465026    -0.81900
N3407       N  0.53056227  0.88157854  0.68155605    -0.03100
C3408       C  0.49751936  0.87954878  0.00260002    -0.00500
C3409       C  0.49103538  0.90663638  0.97672746    -0.23300
C3410       C  0.52079962  0.92498163  0.97228385    -0.23600
C3411       C  0.54505616  0.90877570  0.99536379    -0.00600
H3412       H  0.96889124  0.90954436  0.95764867     0.13200
H3413       H  0.52543238  0.94466909  0.95002618     0.13300
N3414       N  0.62101186  0.78795686  0.67005066    -0.03100
C3415       C  0.61736005  0.75637957  0.98694614    -0.00500
C3416       C  0.63945725  0.75267611  0.95487772    -0.23300
C3417       C  0.65444913  0.78388955  0.94853099    -0.23600
C3418       C  0.64226051  0.80546608  0.97808482    -0.00600
H3419       H  0.64343665  0.72996867  0.93697791     0.13200
H3420       H  0.67061294  0.79073728  0.92333931     0.13300
O3421       O  0.93311444  0.88571647  0.89601947    -0.81400
C3422       C  0.90278029  0.77818645  0.99667813     0.98000
O3423       O  0.93156776  0.77958849  0.97889944    -0.70500
O3424       O  0.90823381  0.78827203  0.90342308    -0.74100
Al3425     Al  0.94227868  0.81136728  0.93564425     1.49000
C3426       C  0.88998928  0.80412093  0.87788663     0.93200
O3427       O  0.84831047  0.85648905  0.93731995    -0.80300
O3428       O  0.91762835  0.89767321  0.67379004    -0.73900
Al3429     Al  0.89200862  0.87000623  0.91951141     1.90100
O3430       O  0.85743874  0.86024352  0.66823967    -0.72900
O3431       O  0.95265844  0.84082308  0.68741727    -0.72800
O3432       O  0.89069008  0.80466017  0.67895989    -0.78400
O3433       O  0.97892132  0.83337925  0.96349404    -0.76600
O3434       O  0.91326016  0.84383873  0.95374578    -1.12800
O3435       O  0.95736709  0.83565424  0.88759917    -0.72000
C3436       C  0.95166949  0.86586927  0.87546313     0.98700
C3437       C  0.83693635  0.85819630  0.97249266     0.95100
Al3438     Al  0.90582257  0.84999065  0.67310938     1.55600
O3439       O  0.88687801  0.83610313  0.87983388    -0.76600
C3440       C  0.97744012  0.84760846  0.99754077     0.99300
C3441       C  0.90441102  0.91970771  0.98419015     0.94200
O3442       O  0.89140390  0.91079561  0.95122077    -0.81900
N3443       N  0.86973858  0.78663165  0.84816868    -0.03100
C3444       C  0.87185978  0.75362363  0.83577714    -0.00500
C3445       C  0.84482513  0.74707367  0.80982768    -0.23300
C3446       C  0.82643241  0.77676233  0.80542786    -0.23600
C3447       C  0.84255305  0.80105229  0.82860940    -0.00600
H3448       H  0.84197337  0.72494509  0.79070202     0.13200
H3449       H  0.80677354  0.78134667  0.78313655     0.13300
N3450       N  0.96337689  0.87705605  0.83665208    -0.03100
C3451       C  0.99491892  0.87331414  0.82016953    -0.00500
C3452       C  0.99869038  0.89538005  0.78807383    -0.23300
C3453       C  0.96753289  0.91040115  0.78172377    -0.23600
C3454       C  0.94592839  0.89828147  0.81131825    -0.00600
H3455       H  0.52140285  0.89934770  0.77018753     0.13200
H3456       H  0.96074258  0.92654625  0.75651318     0.13300
loop_ 
_geom_bond_atom_site_label_1 
_geom_bond_atom_site_label_2 
_geom_bond_distance 
_geom_bond_site_symmetry_2 
_ccdc_geom_bond_type 
O1           C16   1.262       .  A
O1           Al9   1.886       .  S
C2           O12   1.249       .  A
C2            O3   1.271       .  A
C2          C931   1.473       .  S
O3           Al5   1.946       .  S
O4            C6   1.270       .  A
O4           Al5   1.930       .  S
Al5          O13   1.907       .  S
Al5          O15   1.951       .  S
Al5          O14   1.804       .  S
C6           O19   1.255       .  A
C6           N23   1.438       .  S
O7           C17   1.255       .  A
O7           Al9   1.879       .  S
O8           C21   1.261       .  A
O8          Al18   1.915       .  S
Al9          O22   1.910       .  S
Al9          O19   1.881       .  S
Al9          O14   1.741       .  S
O10          C17   1.259       .  A
O10         Al18   1.936       .  S
O11          C20   1.266       .  A
O11         Al18   1.922       .  S
O12         Al18   1.873       .  S
O13          C20   1.264       .  A
O14         Al18   1.796       .  S
O15          C16   1.266       .  A
C16          N30   1.439       .  S
C17         C214   1.481       .  S
C20         C132   1.480       .  S
C21          O22   1.259       .  A
C21         C207   1.479       .  S
N23         C603   1.366   1_554  A
N23         C600   1.355       .  A
C24         C920   1.481   1_545  S
C24         N311   1.355       .  A
C24          C25   1.387   1_545  A
C25          C26   1.371   1_565  A
C25         H892   1.079       .  S
C26          C27   1.374       .  A
C26          H29   1.083       .  S
C27         C201   1.479       .  S
C27         N311   1.366       .  A
H28         C889   1.079       .  S
N30         C610   1.365   1_554  A
N30         C607   1.355   1_554  A
C31         C110   1.473       .  S
C31         N318   1.355       .  A
C31          C32   1.381       .  A
C32          C33   1.366       .  A
C32          H35   1.079       .  S
C33          C34   1.380       .  A
C33          H36   1.083       .  S
C34         C197   1.481       .  S
C34         N318   1.365       .  A
O37          C52   1.262       .  A
O37         Al45   1.885       .  S
C38          O39   1.271       .  A
C38         O336   1.249       .  A
C38         C103   1.473       .  S
O39         Al41   1.946       .  S
O40          C42   1.270       .  A
O40         Al41   1.930       .  S
Al41         O49   1.908       .  S
Al41         O51   1.951       .  S
Al41         O50   1.803       .  S
C42          O55   1.255       .  A
C42          N59   1.438       .  S
O43          C53   1.255       .  A
O43         Al45   1.879       .  S
O44         C633   1.261   1_554  A
O44         Al54   1.915       .  S
Al45         O58   1.910       .  S
Al45         O55   1.881       .  S
Al45         O50   1.742       .  S
O46         C629   1.259   1_554  A
O46         Al54   1.937       .  S
O47         C632   1.266   1_554  A
O47         Al54   1.922       .  S
O48         C614   1.249   1_554  A
O48         Al54   1.873       .  S
O49          C56   1.264       .  A
O50        Al342   1.796       .  S
O51          C52   1.266       .  A
C52          N66   1.439       .  S
C53         O334   1.259       .  A
C53         C250   1.481       .  S
Al54        O626   1.796   1_554  S
C56         O335   1.266       .  A
C56         C888   1.481       .  S
C57          O58   1.259       .  A
C57         O332   1.261       .  A
C57         C243   1.479       .  S
N59          C63   1.366       .  A
N59          C60   1.354       .  A
C60          C92   1.480       .  S
C60          C61   1.387       .  A
C61          C62   1.371       .  A
C61          H64   1.079       .  S
C62          C63   1.374       .  A
C62          H65   1.083       .  S
C63         C237   1.479       .  S
N66          C70   1.365       .  A
N66          C67   1.355       .  A
C67         C866   1.473       .  S
C67          C68   1.381       .  A
C68          C69   1.366       .  A
C68         H935   1.079       .  S
C69          C70   1.380       .  A
C69          H72   1.083       .  S
C70         C233   1.481       .  S
H71         C932   1.079       .  S
O73          C88   1.262       .  A
O73         Al81   1.886       .  S
C74          O84   1.249       .  A
C74          O75   1.271       .  A
C74        C1003   1.473       .  S
O75         Al77   1.946       .  S
O76          C78   1.270       .  A
O76         Al77   1.930       .  S
Al77         O85   1.907       .  S
Al77         O87   1.951       .  S
Al77         O86   1.804       .  S
C78          O91   1.255       .  A
C78          N95   1.438       .  S
O79          C89   1.255       .  A
O79         Al81   1.879       .  S
O80          C93   1.261       .  A
O80         Al90   1.915       .  S
Al81         O94   1.910       .  S
Al81         O91   1.880       .  S
Al81         O86   1.741       .  S
O82          C89   1.259       .  A
O82         Al90   1.936       .  S
O83          C92   1.266       .  A
O83         Al90   1.922       .  S
O84         Al90   1.873       .  S
O85          C92   1.264       .  A
O86         Al90   1.796       .  S
O87          C88   1.266       .  A
C88         N102   1.439       .  S
C89         C286   1.481       .  S
C93          O94   1.259       .  A
C93         C279   1.479       .  S
N95         C675   1.366   1_554  A
N95         C672   1.355       .  A
C96         C992   1.481       .  S
C96         N383   1.355       .  A
C96          C97   1.387       .  A
C97          C98   1.371       .  A
C97         H964   1.079       .  S
C98          C99   1.374       .  A
C98         H101   1.083       .  S
C99         C273   1.479       .  S
C99         N383   1.366       .  A
H100        C961   1.079       .  S
N102        C682   1.365   1_554  A
N102        C679   1.355   1_554  A
C103        N390   1.355       .  A
C103        C104   1.381       .  A
C104        C105   1.366       .  A
C104        H107   1.079       .  S
C105        C106   1.380       .  A
C105        H108   1.083       .  S
C106        C269   1.481       .  S
C106        N390   1.365       .  A
O109        C124   1.262       .  A
O109       Al117   1.885       .  S
C110        O111   1.271       .  A
C110        O408   1.249       .  A
O111       Al113   1.946       .  S
O112        C114   1.270       .  A
O112       Al113   1.930       .  S
Al113       O121   1.908       .  S
Al113       O123   1.951       .  S
Al113       O122   1.803       .  S
C114        O127   1.255       .  A
C114        N131   1.438       .  S
O115        C125   1.255       .  A
O115       Al117   1.879       .  S
O116        C705   1.261   1_554  A
O116       Al126   1.915       .  S
Al117       O130   1.910       .  S
Al117       O127   1.881       .  S
Al117       O122   1.742       .  S
O118        C701   1.259   1_554  A
O118       Al126   1.937       .  S
O119        C704   1.266   1_554  A
O119       Al126   1.922       .  S
O120        C686   1.249   1_554  A
O120       Al126   1.873       .  S
O121        C128   1.264       .  A
O122       Al414   1.796       .  S
O123        C124   1.266       .  A
C124        N138   1.439       .  S
C125        O406   1.259       .  A
C125        C178   1.481       .  S
Al126       O698   1.796   1_554  S
C128        O407   1.266       .  A
C128        C960   1.481       .  S
C129        O130   1.259       .  A
C129        O404   1.261       .  A
C129        C171   1.479       .  S
N131        C135   1.366       .  A
N131        C132   1.354       .  A
C132        C133   1.387       .  A
C133        C134   1.371       .  A
C133        H136   1.079       .  S
C134        C135   1.374       .  A
C134        H137   1.083       .  S
C135        C165   1.479       .  S
N138        C142   1.365       .  A
N138        C139   1.355       .  A
C139        C938   1.473   1_545  S
C139        C140   1.381       .  A
C140        C141   1.366       .  A
C140       H1007   1.079   1_545  S
C141        C142   1.380       .  A
C141        H144   1.083       .  S
C142        C161   1.481       .  S
H143       C1004   1.079       .  S
O145        C160   1.262       .  A
O145       Al153   1.885       .  S
C146        O156   1.249       .  A
C146        O147   1.271       .  A
C146       C1939   1.473       .  S
O147       Al149   1.946       .  S
O148        C150   1.270       .  A
O148       Al149   1.930       .  S
Al149       O157   1.908       .  S
Al149       O159   1.951       .  S
Al149       O158   1.803       .  S
C150        O163   1.255       .  A
C150        N167   1.438       .  S
O151        C161   1.255       .  A
O151       Al153   1.879       .  S
O152        C165   1.261       .  A
O152       Al162   1.915       .  S
Al153       O166   1.910       .  S
Al153       O163   1.881       .  S
Al153       O158   1.742       .  S
O154        C161   1.259       .  A
O154       Al162   1.937       .  S
O155        C164   1.266       .  A
O155       Al162   1.922       .  S
O156       Al162   1.873       .  S
O157        C164   1.264       .  A
O158       Al162   1.796       .  S
O159        C160   1.266       .  A
C160        N174   1.439       .  S
C164        C276   1.481       .  S
C165        O166   1.259       .  A
N167        C747   1.366   1_554  A
N167        C744   1.354       .  A
C168       C1928   1.480       .  S
C168        N455   1.354       .  A
C168        C169   1.387       .  A
C169        C170   1.371       .  A
C169       H1900   1.079       .  S
C170        C171   1.374       .  A
C170        H173   1.083       .  S
C171        N455   1.366       .  A
H172       C1897   1.079       .  S
N174        C754   1.365   1_554  A
N174        C751   1.355   1_554  A
C175        C254   1.473       .  S
C175        N462   1.355       .  A
C175        C176   1.381       .  A
C176        C177   1.366       .  A
C176        H179   1.079       .  S
C177        C178   1.380       .  A
C177        H180   1.083       .  S
C178        N462   1.365       .  A
O181        C196   1.262       .  A
O181       Al189   1.886       .  S
C182        O183   1.271       .  A
C182        O480   1.249       .  A
C182        C247   1.473       .  S
O183       Al185   1.946       .  S
O184        C186   1.270       .  A
O184       Al185   1.930       .  S
Al185       O193   1.907       .  S
Al185       O195   1.951       .  S
Al185       O194   1.804       .  S
C186        O199   1.255       .  A
C186        N203   1.438       .  S
O187        C197   1.255       .  A
O187       Al189   1.879       .  S
O188        C777   1.261   1_554  A
O188       Al198   1.915       .  S
Al189       O202   1.910       .  S
Al189       O199   1.881       .  S
Al189       O194   1.741       .  S
O190        C773   1.259   1_554  A
O190       Al198   1.936       .  S
O191        C776   1.266   1_554  A
O191       Al198   1.922       .  S
O192        C758   1.249   1_554  A
O192       Al198   1.873       .  S
O193        C200   1.264       .  A
O194       Al486   1.796       .  S
O195        C196   1.266       .  A
C196        N210   1.439       .  S
C197        O478   1.259       .  A
Al198       O770   1.796   1_554  S
C200        O479   1.266       .  A
C200       C1896   1.480   1_455  S
C201        O202   1.259       .  A
C201        O476   1.261       .  A
N203        C207   1.366       .  A
N203        C204   1.355       .  A
C204        C236   1.481       .  S
C204        C205   1.387       .  A
C205        C206   1.371       .  A
C205        H208   1.079       .  S
C206        C207   1.374       .  A
C206        H209   1.083       .  S
N210        C214   1.365       .  A
N210        C211   1.355       .  A
C211       C1874   1.473   1_455  S
C211        C212   1.381   1_455  A
C212        C213   1.366   1_655  A
C212       H1943   1.079       .  S
C213        C214   1.380       .  A
C213        H216   1.083       .  S
H215       C1940   1.079       .  S
O217        C232   1.262       .  A
O217       Al225   1.885       .  S
C218        O228   1.249       .  A
C218        O219   1.271       .  A
C218       C2011   1.473   1_455  S
O219       Al221   1.946       .  S
O220        C222   1.270       .  A
O220       Al221   1.930       .  S
Al221       O229   1.908       .  S
Al221       O231   1.951       .  S
Al221       O230   1.803       .  S
C222        O235   1.255       .  A
C222        N239   1.438       .  S
O223        C233   1.255       .  A
O223       Al225   1.879       .  S
O224        C237   1.261       .  A
O224       Al234   1.915       .  S
Al225       O238   1.910       .  S
Al225       O235   1.881       .  S
Al225       O230   1.742       .  S
O226        C233   1.259       .  A
O226       Al234   1.937       .  S
O227        C236   1.266       .  A
O227       Al234   1.922       .  S
O228       Al234   1.874       .  S
O229        C236   1.264       .  A
O230       Al234   1.796       .  S
O231        C232   1.266       .  A
C232        N246   1.439       .  S
C237        O238   1.259       .  A
N239        C819   1.366   1_554  A
N239        C816   1.354   1_455  A
C240       C2000   1.480       .  S
C240        N527   1.354   1_655  A
C240        C241   1.387       .  A
C241        C242   1.371   1_655  A
C241       H1972   1.079       .  S
C242        C243   1.374       .  A
C242        H245   1.083       .  S
C243        N527   1.366       .  A
H244       C1969   1.079       .  S
N246        C826   1.365   1_554  A
N246        C823   1.355   1_554  A
C247        N534   1.355       .  A
C247        C248   1.381       .  A
C248        C249   1.366       .  A
C248        H251   1.079       .  S
C249        C250   1.380       .  A
C249        H252   1.083       .  S
C250        N534   1.365       .  A
O253        C268   1.262       .  A
O253       Al261   1.886       .  S
C254        O255   1.271       .  A
C254        O552   1.249       .  A
O255       Al257   1.946       .  S
O256        C258   1.270       .  A
O256       Al257   1.930       .  S
Al257       O265   1.907       .  S
Al257       O267   1.951       .  S
Al257       O266   1.804       .  S
C258        O271   1.255       .  A
C258        N275   1.438       .  S
O259        C269   1.255       .  A
O259       Al261   1.879       .  S
O260        C849   1.261   1_554  A
O260       Al270   1.915       .  S
Al261       O274   1.910       .  S
Al261       O271   1.881       .  S
Al261       O266   1.741       .  S
O262        C845   1.259   1_554  A
O262       Al270   1.936       .  S
O263        C848   1.266   1_554  A
O263       Al270   1.922       .  S
O264        C830   1.249   1_554  A
O264       Al270   1.873       .  S
O265        C272   1.264       .  A
O266       Al558   1.796       .  S
O267        C268   1.266       .  A
C268        N282   1.439       .  S
C269        O550   1.259       .  A
Al270       O842   1.796   1_554  S
C272        O551   1.266       .  A
C272       C1968   1.480       .  S
C273        O274   1.259       .  A
C273        O548   1.261       .  A
N275        C279   1.366       .  A
N275        C276   1.355       .  A
C276        C277   1.387       .  A
C277        C278   1.371       .  A
C277        H280   1.079       .  S
C278        C279   1.374       .  A
C278        H281   1.083       .  S
N282        C286   1.365       .  A
N282        C283   1.355       .  A
C283       C1946   1.473       .  S
C283        C284   1.381       .  A
C284        C285   1.366       .  A
C284       H2015   1.079       .  S
C285        C286   1.380       .  A
C285        H288   1.083       .  S
H287       C2012   1.079   1_455  S
O289        C304   1.262       .  A
O289       Al297   1.886       .  S
C290        O300   1.249       .  A
C290        O291   1.271       .  A
C290       C1219   1.473       .  S
O291       Al293   1.946       .  S
O292        C294   1.270       .  A
O292       Al293   1.930       .  S
Al293       O301   1.907       .  S
Al293       O303   1.951       .  S
Al293       O302   1.804       .  S
C294        O307   1.255       .  A
C294        N311   1.438       .  S
O295        C305   1.255       .  A
O295       Al297   1.879       .  S
O296        C309   1.261       .  A
O296       Al306   1.915       .  S
Al297       O310   1.910       .  S
Al297       O307   1.881       .  S
Al297       O302   1.741       .  S
O298        C305   1.259       .  A
O298       Al306   1.936       .  S
O299        C308   1.266       .  A
O299       Al306   1.922       .  S
O300       Al306   1.873       .  S
O301        C308   1.264       .  A
O302       Al306   1.796       .  S
O303        C304   1.266       .  A
C304        N318   1.439       .  S
C305        C502   1.481       .  S
C308        C420   1.480       .  S
C309        O310   1.259       .  A
C309        C495   1.479       .  S
C312       C1208   1.481   1_545  S
C312        N599   1.355       .  A
C312        C313   1.387   1_545  A
C313        C314   1.371   1_565  A
C313       H1180   1.079       .  S
C314        C315   1.374       .  A
C314        H317   1.083       .  S
C315        C489   1.479       .  S
C315        N599   1.366       .  A
H316       C1177   1.079       .  S
C319        C398   1.473       .  S
C319        N606   1.355       .  A
C319        C320   1.381       .  A
C320        C321   1.366       .  A
C320        H323   1.079       .  S
C321        C322   1.380       .  A
C321        H324   1.083       .  S
C322        C485   1.481       .  S
C322        N606   1.365       .  A
O325        C340   1.262       .  A
O325       Al333   1.885       .  S
C326        O624   1.249       .  A
C326        O327   1.271       .  A
C326        C391   1.473       .  S
O327       Al329   1.946       .  S
O328        C330   1.270       .  A
O328       Al329   1.930       .  S
Al329       O337   1.908       .  S
Al329       O339   1.951       .  S
Al329       O338   1.803       .  S
C330        O343   1.255       .  A
C330        N347   1.438       .  S
O331        C341   1.255       .  A
O331       Al333   1.879       .  S
O332       Al342   1.915       .  S
Al333       O346   1.910       .  S
Al333       O343   1.881       .  S
Al333       O338   1.742       .  S
O334       Al342   1.937       .  S
O335       Al342   1.922       .  S
O336       Al342   1.873       .  S
O337        C344   1.264       .  A
O338       Al630   1.796       .  S
O339        C340   1.266       .  A
C340        N354   1.439       .  S
C341        O622   1.259       .  A
C341        C538   1.481       .  S
C344        O623   1.266       .  A
C344       C1176   1.481       .  S
C345        O620   1.261       .  A
C345        O346   1.259       .  A
C345        C531   1.479       .  S
N347        C351   1.366       .  A
N347        C348   1.354       .  A
C348        C380   1.480       .  S
C348        C349   1.387       .  A
C349        C350   1.371       .  A
C349        H352   1.079       .  S
C350        C351   1.374       .  A
C350        H353   1.083       .  S
C351        C525   1.479       .  S
N354        C358   1.365       .  A
N354        C355   1.355       .  A
C355       C1154   1.473       .  S
C355        C356   1.381       .  A
C356        C357   1.366       .  A
C356       H1223   1.079       .  S
C357        C358   1.380       .  A
C357        H360   1.083       .  S
C358        C521   1.481       .  S
H359       C1220   1.079       .  S
O361        C376   1.262       .  A
O361       Al369   1.886       .  S
C362        O372   1.249       .  A
C362        O363   1.271       .  A
C362       C1291   1.473       .  S
O363       Al365   1.946       .  S
O364        C366   1.270       .  A
O364       Al365   1.930       .  S
Al365       O373   1.907       .  S
Al365       O375   1.951       .  S
Al365       O374   1.804       .  S
C366        O379   1.255       .  A
C366        N383   1.438       .  S
O367        C377   1.255       .  A
O367       Al369   1.879       .  S
O368        C381   1.261       .  A
O368       Al378   1.915       .  S
Al369       O382   1.910       .  S
Al369       O379   1.880       .  S
Al369       O374   1.741       .  S
O370        C377   1.259       .  A
O370       Al378   1.936       .  S
O371        C380   1.266       .  A
O371       Al378   1.922       .  S
O372       Al378   1.873       .  S
O373        C380   1.264       .  A
O374       Al378   1.796       .  S
O375        C376   1.266       .  A
C376        N390   1.439       .  S
C377        C574   1.481       .  S
C381        O382   1.259       .  A
C381        C567   1.479       .  S
C384       C1280   1.481       .  S
C384        N671   1.355       .  A
C384        C385   1.387       .  A
C385        C386   1.371       .  A
C385       H1252   1.079       .  S
C386        C387   1.374       .  A
C386        H389   1.083       .  S
C387        C561   1.479       .  S
C387        N671   1.366       .  A
H388       C1249   1.079       .  S
C391        N678   1.355       .  A
C391        C392   1.381       .  A
C392        C393   1.366       .  A
C392        H395   1.079       .  S
C393        C394   1.380       .  A
C393        H396   1.083       .  S
C394        C557   1.481       .  S
C394        N678   1.365       .  A
O397        C412   1.262       .  A
O397       Al405   1.885       .  S
C398        O696   1.249       .  A
C398        O399   1.271       .  A
O399       Al401   1.946       .  S
O400        C402   1.270       .  A
O400       Al401   1.930       .  S
Al401       O409   1.908       .  S
Al401       O411   1.951       .  S
Al401       O410   1.803       .  S
C402        O415   1.255       .  A
C402        N419   1.438       .  S
O403        C413   1.255       .  A
O403       Al405   1.879       .  S
O404       Al414   1.915       .  S
Al405       O418   1.910       .  S
Al405       O415   1.881       .  S
Al405       O410   1.742       .  S
O406       Al414   1.937       .  S
O407       Al414   1.922       .  S
O408       Al414   1.873       .  S
O409        C416   1.264       .  A
O410       Al702   1.796       .  S
O411        C412   1.266       .  A
C412        N426   1.439       .  S
C413        O694   1.259       .  A
C413        C466   1.481       .  S
C416        O695   1.266       .  A
C416       C1248   1.481       .  S
C417        O692   1.261       .  A
C417        O418   1.259       .  A
C417        C459   1.479       .  S
N419        C423   1.366       .  A
N419        C420   1.354       .  A
C420        C421   1.387       .  A
C421        C422   1.371       .  A
C421        H424   1.079       .  S
C422        C423   1.374       .  A
C422        H425   1.083       .  S
C423        C453   1.479       .  S
N426        C430   1.365       .  A
N426        C427   1.355       .  A
C427       C1226   1.473   1_545  S
C427        C428   1.381       .  A
C428        C429   1.366       .  A
C428       H1295   1.079   1_545  S
C429        C430   1.380       .  A
C429        H432   1.083       .  S
C430        C449   1.481       .  S
H431       C1292   1.079       .  S
O433        C448   1.262       .  A
O433       Al441   1.885       .  S
C434        O444   1.249       .  A
C434        O435   1.271       .  A
C434       C2227   1.473       .  S
O435       Al437   1.946       .  S
O436        C438   1.270       .  A
O436       Al437   1.930       .  S
Al437       O445   1.908       .  S
Al437       O447   1.951       .  S
Al437       O446   1.803       .  S
C438        O451   1.255       .  A
C438        N455   1.438       .  S
O439        C449   1.255       .  A
O439       Al441   1.879       .  S
O440        C453   1.261       .  A
O440       Al450   1.915       .  S
Al441       O454   1.910       .  S
Al441       O451   1.881       .  S
Al441       O446   1.742       .  S
O442        C449   1.259       .  A
O442       Al450   1.937       .  S
O443        C452   1.266       .  A
O443       Al450   1.922       .  S
O444       Al450   1.873       .  S
O445        C452   1.264       .  A
O446       Al450   1.796       .  S
O447        C448   1.266       .  A
C448        N462   1.439       .  S
C452        C564   1.481       .  S
C453        O454   1.259       .  A
C456       C2216   1.480       .  S
C456        N743   1.354       .  A
C456        C457   1.387       .  A
C457        C458   1.371       .  A
C457       H2188   1.079       .  S
C458        C459   1.374       .  A
C458        H461   1.083       .  S
C459        N743   1.366       .  A
H460       C2185   1.079       .  S
C463        C542   1.473       .  S
C463        N750   1.355       .  A
C463        C464   1.381       .  A
C464        C465   1.366       .  A
C464        H467   1.079       .  S
C465        C466   1.380       .  A
C465        H468   1.083       .  S
C466        N750   1.365       .  A
O469        C484   1.262       .  A
O469       Al477   1.886       .  S
C470        O768   1.249       .  A
C470        O471   1.271       .  A
C470        C535   1.473       .  S
O471       Al473   1.946       .  S
O472        C474   1.270       .  A
O472       Al473   1.930       .  S
Al473       O481   1.907       .  S
Al473       O483   1.951       .  S
Al473       O482   1.804       .  S
C474        O487   1.255       .  A
C474        N491   1.438       .  S
O475        C485   1.255       .  A
O475       Al477   1.879       .  S
O476       Al486   1.915       .  S
Al477       O490   1.910       .  S
Al477       O487   1.881       .  S
Al477       O482   1.741       .  S
O478       Al486   1.936       .  S
O479       Al486   1.922       .  S
O480       Al486   1.873       .  S
O481        C488   1.264       .  A
O482       Al774   1.796       .  S
O483        C484   1.266       .  A
C484        N498   1.439       .  S
C485        O766   1.259       .  A
C488        O767   1.266       .  A
C488       C2184   1.480   1_455  S
C489        O764   1.261       .  A
C489        O490   1.259       .  A
N491        C495   1.366       .  A
N491        C492   1.355       .  A
C492        C524   1.481       .  S
C492        C493   1.387       .  A
C493        C494   1.371       .  A
C493        H496   1.079       .  S
C494        C495   1.374       .  A
C494        H497   1.083       .  S
N498        C502   1.365       .  A
N498        C499   1.355       .  A
C499       C2162   1.473   1_455  S
C499        C500   1.381   1_455  A
C500        C501   1.366   1_655  A
C500       H2231   1.079       .  S
C501        C502   1.380       .  A
C501        H504   1.083       .  S
H503       C2228   1.079       .  S
O505        C520   1.262       .  A
O505       Al513   1.885       .  S
C506        O516   1.249       .  A
C506        O507   1.271       .  A
C506       C2299   1.473   1_455  S
O507       Al509   1.946       .  S
O508        C510   1.270       .  A
O508       Al509   1.930       .  S
Al509       O517   1.908       .  S
Al509       O519   1.951       .  S
Al509       O518   1.803       .  S
C510        O523   1.255       .  A
C510        N527   1.438       .  S
O511        C521   1.255       .  A
O511       Al513   1.879       .  S
O512        C525   1.261       .  A
O512       Al522   1.915       .  S
Al513       O526   1.910       .  S
Al513       O523   1.881       .  S
Al513       O518   1.742       .  S
O514        C521   1.259       .  A
O514       Al522   1.937       .  S
O515        C524   1.266       .  A
O515       Al522   1.922       .  S
O516       Al522   1.874       .  S
O517        C524   1.264       .  A
O518       Al522   1.796       .  S
O519        C520   1.266       .  A
C520        N534   1.439       .  S
C525        O526   1.259       .  A
C528       C2288   1.480       .  S
C528        N815   1.354   1_655  A
C528        C529   1.387       .  A
C529        C530   1.371   1_655  A
C529       H2260   1.079       .  S
C530        C531   1.374       .  A
C530        H533   1.083       .  S
C531        N815   1.366       .  A
H532       C2257   1.079       .  S
C535        N822   1.355       .  A
C535        C536   1.381       .  A
C536        C537   1.366       .  A
C536        H539   1.079       .  S
C537        C538   1.380       .  A
C537        H540   1.083       .  S
C538        N822   1.365       .  A
O541        C556   1.262       .  A
O541       Al549   1.886       .  S
C542        O840   1.249       .  A
C542        O543   1.271       .  A
O543       Al545   1.946       .  S
O544        C546   1.270       .  A
O544       Al545   1.930       .  S
Al545       O553   1.907       .  S
Al545       O555   1.951       .  S
Al545       O554   1.804       .  S
C546        O559   1.255       .  A
C546        N563   1.438       .  S
O547        C557   1.255       .  A
O547       Al549   1.879       .  S
O548       Al558   1.915       .  S
Al549       O562   1.910       .  S
Al549       O559   1.881       .  S
Al549       O554   1.741       .  S
O550       Al558   1.936       .  S
O551       Al558   1.922       .  S
O552       Al558   1.873       .  S
O553        C560   1.264       .  A
O554       Al846   1.796       .  S
O555        C556   1.266       .  A
C556        N570   1.439       .  S
C557        O838   1.259       .  A
C560        O839   1.266       .  A
C560       C2256   1.480       .  S
C561        O836   1.261       .  A
C561        O562   1.259       .  A
N563        C567   1.366       .  A
N563        C564   1.355       .  A
C564        C565   1.387       .  A
C565        C566   1.371       .  A
C565        H568   1.079       .  S
C566        C567   1.374       .  A
C566        H569   1.083       .  S
N570        C574   1.365       .  A
N570        C571   1.355       .  A
C571       C2234   1.473       .  S
C571        C572   1.381       .  A
C572        C573   1.366       .  A
C572       H2303   1.079       .  S
C573        C574   1.380       .  A
C573        H576   1.083       .  S
H575       C2300   1.079   1_455  S
O577        C592   1.262       .  A
O577       Al585   1.886       .  S
C578        O588   1.249       .  A
C578        O579   1.271       .  A
C578       C1507   1.473       .  S
O579       Al581   1.946       .  S
O580        C582   1.270       .  A
O580       Al581   1.930       .  S
Al581       O589   1.907       .  S
Al581       O591   1.951       .  S
Al581       O590   1.804       .  S
C582        O595   1.255       .  A
C582        N599   1.438       .  S
O583        C593   1.255       .  A
O583       Al585   1.879       .  S
O584        C597   1.261       .  A
O584       Al594   1.915       .  S
Al585       O598   1.910       .  S
Al585       O595   1.881       .  S
Al585       O590   1.741       .  S
O586        C593   1.259       .  A
O586       Al594   1.936       .  S
O587        C596   1.266       .  A
O587       Al594   1.922       .  S
O588       Al594   1.873       .  S
O589        C596   1.264       .  A
O590       Al594   1.796       .  S
O591        C592   1.266       .  A
C592        N606   1.439       .  S
C593        C790   1.481       .  S
C596        C708   1.480       .  S
C597        O598   1.259       .  A
C597        C783   1.479       .  S
C600       C1496   1.481   1_544  S
C600        C601   1.387   1_544  A
C601        C602   1.371   1_565  A
C601       H1468   1.079       .  S
C602        C603   1.374       .  A
C602        H605   1.083       .  S
C603        C777   1.479       .  S
H604       C1465   1.079       .  S
C607        C686   1.473       .  S
C607        C608   1.381       .  A
C608        C609   1.366       .  A
C608        H611   1.079       .  S
C609        C610   1.380       .  A
C609        H612   1.083       .  S
C610        C773   1.481       .  S
O613        C628   1.262       .  A
O613       Al621   1.885       .  S
C614        O615   1.271       .  A
C614        C679   1.473       .  S
O615       Al617   1.946       .  S
O616        C618   1.270       .  A
O616       Al617   1.930       .  S
Al617       O625   1.908       .  S
Al617       O627   1.951       .  S
Al617       O626   1.803       .  S
C618        O631   1.255       .  A
C618        N635   1.438       .  S
O619        C629   1.255       .  A
O619       Al621   1.879       .  S
O620       Al630   1.915       .  S
Al621       O634   1.910       .  S
Al621       O631   1.881       .  S
Al621       O626   1.742       .  S
O622       Al630   1.937       .  S
O623       Al630   1.922       .  S
O624       Al630   1.873       .  S
O625        C632   1.264       .  A
O627        C628   1.266       .  A
C628        N642   1.439       .  S
C629        C826   1.481       .  S
C632       C1464   1.481   1_556  S
C633        O634   1.259       .  A
C633        C819   1.479       .  S
N635        C639   1.366       .  A
N635        C636   1.354       .  A
C636        C668   1.480       .  S
C636        C637   1.387       .  A
C637        C638   1.371       .  A
C637        H640   1.079       .  S
C638        C639   1.374       .  A
C638        H641   1.083       .  S
C639        C813   1.479       .  S
N642        C646   1.365       .  A
N642        C643   1.355       .  A
C643       C1442   1.473       .  S
C643        C644   1.381       .  A
C644        C645   1.366       .  A
C644       H1511   1.079       .  S
C645        C646   1.380       .  A
C645        H648   1.083       .  S
C646        C809   1.481       .  S
H647       C1508   1.079       .  S
O649        C664   1.262       .  A
O649       Al657   1.886       .  S
C650        O660   1.249       .  A
C650        O651   1.271       .  A
C650       C1579   1.473       .  S
O651       Al653   1.946       .  S
O652        C654   1.270       .  A
O652       Al653   1.930       .  S
Al653       O661   1.907       .  S
Al653       O663   1.951       .  S
Al653       O662   1.804       .  S
C654        O667   1.255       .  A
C654        N671   1.438       .  S
O655        C665   1.255       .  A
O655       Al657   1.879       .  S
O656        C669   1.261       .  A
O656       Al666   1.915       .  S
Al657       O670   1.910       .  S
Al657       O667   1.880       .  S
Al657       O662   1.741       .  S
O658        C665   1.259       .  A
O658       Al666   1.936       .  S
O659        C668   1.266       .  A
O659       Al666   1.922       .  S
O660       Al666   1.873       .  S
O661        C668   1.264       .  A
O662       Al666   1.796       .  S
O663        C664   1.266       .  A
C664        N678   1.439       .  S
C665        C862   1.481       .  S
C669        O670   1.259       .  A
C669        C855   1.479       .  S
C672       C1568   1.481   1_554  S
C672        C673   1.387   1_554  A
C673        C674   1.371       .  A
C673       H1540   1.079       .  S
C674        C675   1.374       .  A
C674        H677   1.083       .  S
C675        C849   1.479       .  S
H676       C1537   1.079       .  S
C679        C680   1.381       .  A
C680        C681   1.366       .  A
C680        H683   1.079       .  S
C681        C682   1.380       .  A
C681        H684   1.083       .  S
C682        C845   1.481       .  S
O685        C700   1.262       .  A
O685       Al693   1.885       .  S
C686        O687   1.271       .  A
O687       Al689   1.946       .  S
O688        C690   1.270       .  A
O688       Al689   1.930       .  S
Al689       O697   1.908       .  S
Al689       O699   1.951       .  S
Al689       O698   1.803       .  S
C690        O703   1.255       .  A
C690        N707   1.438       .  S
O691        C701   1.255       .  A
O691       Al693   1.879       .  S
O692       Al702   1.915       .  S
Al693       O706   1.910       .  S
Al693       O703   1.881       .  S
Al693       O698   1.742       .  S
O694       Al702   1.937       .  S
O695       Al702   1.922       .  S
O696       Al702   1.873       .  S
O697        C704   1.264       .  A
O699        C700   1.266       .  A
C700        N714   1.439       .  S
C701        C754   1.481       .  S
C704       C1536   1.481   1_556  S
C705        O706   1.259       .  A
C705        C747   1.479       .  S
N707        C711   1.366       .  A
N707        C708   1.354       .  A
C708        C709   1.387       .  A
C709        C710   1.371       .  A
C709        H712   1.079       .  S
C710        C711   1.374       .  A
C710        H713   1.083       .  S
C711        C741   1.479       .  S
N714        C718   1.365       .  A
N714        C715   1.355       .  A
C715       C1514   1.473   1_545  S
C715        C716   1.381       .  A
C716        C717   1.366       .  A
C716       H1583   1.079   1_545  S
C717        C718   1.380       .  A
C717        H720   1.083       .  S
C718        C737   1.481       .  S
H719       C1580   1.079       .  S
O721        C736   1.262       .  A
O721       Al729   1.885       .  S
C722        O732   1.249       .  A
C722        O723   1.271       .  A
C722       C2515   1.473       .  S
O723       Al725   1.946       .  S
O724        C726   1.270       .  A
O724       Al725   1.930       .  S
Al725       O733   1.908       .  S
Al725       O735   1.951       .  S
Al725       O734   1.803       .  S
C726        O739   1.255       .  A
C726        N743   1.438       .  S
O727        C737   1.255       .  A
O727       Al729   1.879       .  S
O728        C741   1.261       .  A
O728       Al738   1.915       .  S
Al729       O742   1.910       .  S
Al729       O739   1.881       .  S
Al729       O734   1.742       .  S
O730        C737   1.259       .  A
O730       Al738   1.937       .  S
O731        C740   1.266       .  A
O731       Al738   1.922       .  S
O732       Al738   1.873       .  S
O733        C740   1.264       .  A
O734       Al738   1.796       .  S
O735        C736   1.266       .  A
C736        N750   1.439       .  S
C740        C852   1.481       .  S
C741        O742   1.259       .  A
C744       C2504   1.480   1_554  S
C744        C745   1.387   1_554  A
C745        C746   1.371       .  A
C745       H2476   1.079       .  S
C746        C747   1.374       .  A
C746        H749   1.083       .  S
H748       C2473   1.079       .  S
C751        C830   1.473       .  S
C751        C752   1.381       .  A
C752        C753   1.366       .  A
C752        H755   1.079       .  S
C753        C754   1.380       .  A
C753        H756   1.083       .  S
O757        C772   1.262       .  A
O757       Al765   1.886       .  S
C758        O759   1.271       .  A
C758        C823   1.473       .  S
O759       Al761   1.946       .  S
O760        C762   1.270       .  A
O760       Al761   1.930       .  S
Al761       O769   1.907       .  S
Al761       O771   1.951       .  S
Al761       O770   1.804       .  S
C762        O775   1.255       .  A
C762        N779   1.438       .  S
O763        C773   1.255       .  A
O763       Al765   1.879       .  S
O764       Al774   1.915       .  S
Al765       O778   1.910       .  S
Al765       O775   1.881       .  S
Al765       O770   1.741       .  S
O766       Al774   1.936       .  S
O767       Al774   1.922       .  S
O768       Al774   1.873       .  S
O769        C776   1.264       .  A
O771        C772   1.266       .  A
C772        N786   1.439       .  S
C776       C2472   1.480   1_456  S
C777        O778   1.259       .  A
N779        C783   1.366       .  A
N779        C780   1.355       .  A
C780        C812   1.481       .  S
C780        C781   1.387       .  A
C781        C782   1.371       .  A
C781        H784   1.079       .  S
C782        C783   1.374       .  A
C782        H785   1.083       .  S
N786        C790   1.365       .  A
N786        C787   1.355       .  A
C787       C2450   1.473   1_455  S
C787        C788   1.381   1_455  A
C788        C789   1.366   1_655  A
C788       H2519   1.079       .  S
C789        C790   1.380       .  A
C789        H792   1.083       .  S
H791       C2516   1.079       .  S
O793        C808   1.262       .  A
O793       Al801   1.885       .  S
C794        O804   1.249       .  A
C794        O795   1.271       .  A
C794       C2587   1.473   1_455  S
O795       Al797   1.946       .  S
O796        C798   1.270       .  A
O796       Al797   1.930       .  S
Al797       O805   1.908       .  S
Al797       O807   1.951       .  S
Al797       O806   1.803       .  S
C798        O811   1.255       .  A
C798        N815   1.438       .  S
O799        C809   1.255       .  A
O799       Al801   1.879       .  S
O800        C813   1.261       .  A
O800       Al810   1.915       .  S
Al801       O814   1.910       .  S
Al801       O811   1.881       .  S
Al801       O806   1.742       .  S
O802        C809   1.259       .  A
O802       Al810   1.937       .  S
O803        C812   1.266       .  A
O803       Al810   1.922       .  S
O804       Al810   1.873       .  S
O805        C812   1.264       .  A
O806       Al810   1.796       .  S
O807        C808   1.266       .  A
C808        N822   1.439       .  S
C813        O814   1.259       .  A
C816       C2576   1.480   1_554  S
C816        C817   1.387   1_554  A
C817        C818   1.371   1_655  A
C817       H2548   1.079       .  S
C818        C819   1.374       .  A
C818        H821   1.083       .  S
H820       C2545   1.079       .  S
C823        C824   1.381       .  A
C824        C825   1.366       .  A
C824        H827   1.079       .  S
C825        C826   1.380       .  A
C825        H828   1.083       .  S
O829        C844   1.262       .  A
O829       Al837   1.886       .  S
C830        O831   1.271       .  A
O831       Al833   1.946       .  S
O832        C834   1.270       .  A
O832       Al833   1.930       .  S
Al833       O841   1.907       .  S
Al833       O843   1.951       .  S
Al833       O842   1.804       .  S
C834        O847   1.255       .  A
C834        N851   1.438       .  S
O835        C845   1.255       .  A
O835       Al837   1.879       .  S
O836       Al846   1.915       .  S
Al837       O850   1.910       .  S
Al837       O847   1.881       .  S
Al837       O842   1.741       .  S
O838       Al846   1.936       .  S
O839       Al846   1.922       .  S
O840       Al846   1.873       .  S
O841        C848   1.264       .  A
O843        C844   1.266       .  A
C844        N858   1.439       .  S
C848       C2544   1.480   1_556  S
C849        O850   1.259       .  A
N851        C855   1.366       .  A
N851        C852   1.355       .  A
C852        C853   1.387       .  A
C853        C854   1.371       .  A
C853        H856   1.079       .  S
C854        C855   1.374       .  A
C854        H857   1.083       .  S
N858        C862   1.365       .  A
N858        C859   1.355       .  A
C859       C2522   1.473       .  S
C859        C860   1.381       .  A
C860        C861   1.366       .  A
C860       H2591   1.079       .  S
C861        C862   1.380       .  A
C861        H864   1.083       .  S
H863       C2588   1.079   1_455  S
O865        C880   1.262       .  A
O865       Al873   1.886       .  S
C866        O876   1.249       .  A
C866        O867   1.271       .  A
O867       Al869   1.946       .  S
O868        C870   1.270       .  A
O868       Al869   1.930       .  S
Al869       O877   1.907       .  S
Al869       O879   1.951       .  S
Al869       O878   1.804       .  S
C870        O883   1.255       .  A
C870        N887   1.438       .  S
O871        C881   1.255       .  A
O871       Al873   1.879       .  S
O872        C885   1.261       .  A
O872       Al882   1.915       .  S
Al873       O886   1.910       .  S
Al873       O883   1.881       .  S
Al873       O878   1.741       .  S
O874        C881   1.259       .  A
O874       Al882   1.936       .  S
O875        C884   1.266       .  A
O875       Al882   1.922       .  S
O876       Al882   1.873       .  S
O877        C884   1.264       .  A
O878       Al882   1.796       .  S
O879        C880   1.266       .  A
C880        N894   1.439       .  S
C881       C1078   1.481       .  S
C884        C996   1.480       .  S
C885        O886   1.259       .  A
C885       C1071   1.479       .  S
N887       C1467   1.366   1_554  A
N887       C1464   1.355       .  A
C888       N1175   1.355       .  A
C888        C889   1.387       .  A
C889        C890   1.371       .  A
C890        C891   1.374       .  A
C890        H893   1.083       .  S
C891       C1065   1.479       .  S
C891       N1175   1.366       .  A
N894       C1474   1.365   1_554  A
N894       C1471   1.355   1_554  A
C895        C974   1.473       .  S
C895       N1182   1.355       .  A
C895        C896   1.381       .  A
C896        C897   1.366       .  A
C896        H899   1.079       .  S
C897        C898   1.380       .  A
C897        H900   1.083       .  S
C898       C1061   1.481       .  S
C898       N1182   1.365       .  A
O901        C916   1.262       .  A
O901       Al909   1.885       .  S
C902       O1200   1.249       .  A
C902        O903   1.271       .  A
C902        C967   1.473       .  S
O903       Al905   1.946       .  S
O904        C906   1.270       .  A
O904       Al905   1.930       .  S
Al905       O913   1.908       .  S
Al905       O915   1.951       .  S
Al905       O914   1.803       .  S
C906        O919   1.255       .  A
C906        N923   1.438       .  S
O907        C917   1.255       .  A
O907       Al909   1.879       .  S
O908       C1497   1.261   1_554  A
O908       Al918   1.915       .  S
Al909       O922   1.910       .  S
Al909       O919   1.881       .  S
Al909       O914   1.742       .  S
O910       C1493   1.259   1_554  A
O910       Al918   1.937       .  S
O911       C1496   1.266   1_554  A
O911       Al918   1.922       .  S
O912       C1478   1.249   1_554  A
O912       Al918   1.873       .  S
O913        C920   1.264       .  A
O914      Al1206   1.796       .  S
O915        C916   1.266       .  A
C916        N930   1.439       .  S
C917       O1198   1.259       .  A
C917       C1114   1.481       .  S
Al918      O1490   1.796   1_554  S
C920       O1199   1.266       .  A
C921       O1196   1.261       .  A
C921        O922   1.259       .  A
C921       C1107   1.479       .  S
N923        C927   1.366       .  A
N923        C924   1.354       .  A
C924        C956   1.480       .  S
C924        C925   1.387       .  A
C925        C926   1.371       .  A
C925        H928   1.079       .  S
C926        C927   1.374       .  A
C926        H929   1.083       .  S
C927       C1101   1.479       .  S
N930        C934   1.365       .  A
N930        C931   1.355   1_565  A
C931        C932   1.381       .  A
C932        C933   1.366   1_545  A
C933        C934   1.380       .  A
C933        H936   1.083       .  S
C934       C1097   1.481       .  S
O937        C952   1.262       .  A
O937       Al945   1.886       .  S
C938        O948   1.249       .  A
C938        O939   1.271       .  A
O939       Al941   1.946       .  S
O940        C942   1.270       .  A
O940       Al941   1.930       .  S
Al941       O949   1.907       .  S
Al941       O951   1.951       .  S
Al941       O950   1.804       .  S
C942        O955   1.255       .  A
C942        N959   1.438       .  S
O943        C953   1.255       .  A
O943       Al945   1.879       .  S
O944        C957   1.261       .  A
O944       Al954   1.915       .  S
Al945       O958   1.910       .  S
Al945       O955   1.880       .  S
Al945       O950   1.741       .  S
O946        C953   1.259       .  A
O946       Al954   1.936       .  S
O947        C956   1.266       .  A
O947       Al954   1.922       .  S
O948       Al954   1.873       .  S
O949        C956   1.264       .  A
O950       Al954   1.796       .  S
O951        C952   1.266       .  A
C952        N966   1.439       .  S
C953       C1150   1.481       .  S
C957        O958   1.259       .  A
C957       C1143   1.479       .  S
N959       C1539   1.366   1_554  A
N959       C1536   1.355   1_565  A
C960       N1247   1.355   1_545  A
C960        C961   1.387       .  A
C961        C962   1.371   1_545  A
C962        C963   1.374       .  A
C962        H965   1.083       .  S
C963       C1137   1.479       .  S
C963       N1247   1.366       .  A
N966       C1546   1.365   1_554  A
N966       C1543   1.355   1_554  A
C967       N1254   1.355       .  A
C967        C968   1.381       .  A
C968        C969   1.366       .  A
C968        H971   1.079       .  S
C969        C970   1.380       .  A
C969        H972   1.083       .  S
C970       C1133   1.481       .  S
C970       N1254   1.365       .  A
O973        C988   1.262       .  A
O973       Al981   1.885       .  S
C974       O1272   1.249       .  A
C974        O975   1.271       .  A
O975       Al977   1.946       .  S
O976        C978   1.270       .  A
O976       Al977   1.930       .  S
Al977       O985   1.908       .  S
Al977       O987   1.951       .  S
Al977       O986   1.803       .  S
C978        O991   1.255       .  A
C978        N995   1.438       .  S
O979        C989   1.255       .  A
O979       Al981   1.879       .  S
O980       C1569   1.261   1_554  A
O980       Al990   1.915       .  S
Al981       O994   1.910       .  S
Al981       O991   1.881       .  S
Al981       O986   1.742       .  S
O982       C1565   1.259   1_554  A
O982       Al990   1.937       .  S
O983       C1568   1.266   1_554  A
O983       Al990   1.922       .  S
O984       C1550   1.249   1_554  A
O984       Al990   1.873       .  S
O985        C992   1.264       .  A
O986      Al1278   1.796       .  S
O987        C988   1.266       .  A
C988       N1002   1.439       .  S
C989       O1270   1.259       .  A
C989       C1042   1.481       .  S
Al990      O1562   1.796   1_554  S
C992       O1271   1.266       .  A
C993       O1268   1.261       .  A
C993        O994   1.259       .  A
C993       C1035   1.479       .  S
N995        C999   1.366       .  A
N995        C996   1.354       .  A
C996        C997   1.387       .  A
C997        C998   1.371       .  A
C997       H1000   1.079       .  S
C998        C999   1.374       .  A
C998       H1001   1.083       .  S
C999       C1029   1.479       .  S
N1002      C1006   1.365       .  A
N1002      C1003   1.355       .  A
C1003      C1004   1.381       .  A
C1004      C1005   1.366       .  A
C1005      C1006   1.380       .  A
C1005      H1008   1.083       .  S
C1006      C1025   1.481       .  S
O1009      C1024   1.262       .  A
O1009     Al1017   1.885       .  S
C1010      O1020   1.249       .  A
C1010      O1011   1.271       .  A
C1010      C2803   1.473       .  S
O1011     Al1013   1.946       .  S
O1012      C1014   1.270       .  A
O1012     Al1013   1.930       .  S
Al1013     O1021   1.908       .  S
Al1013     O1023   1.951       .  S
Al1013     O1022   1.803       .  S
C1014      O1027   1.255       .  A
C1014      N1031   1.438       .  S
O1015      C1025   1.255       .  A
O1015     Al1017   1.879       .  S
O1016      C1029   1.261       .  A
O1016     Al1026   1.915       .  S
Al1017     O1030   1.910       .  S
Al1017     O1027   1.881       .  S
Al1017     O1022   1.742       .  S
O1018      C1025   1.259       .  A
O1018     Al1026   1.937       .  S
O1019      C1028   1.266       .  A
O1019     Al1026   1.922       .  S
O1020     Al1026   1.873       .  S
O1021      C1028   1.264       .  A
O1022     Al1026   1.796       .  S
O1023      C1024   1.266       .  A
C1024      N1038   1.439       .  S
C1028      C1140   1.481       .  S
C1029      O1030   1.259       .  A
N1031      C1611   1.366   1_554  A
N1031      C1608   1.354       .  A
C1032      C2792   1.480       .  S
C1032      N1319   1.354       .  A
C1032      C1033   1.387       .  A
C1033      C1034   1.371       .  A
C1033      H2764   1.079       .  S
C1034      C1035   1.374       .  A
C1034      H1037   1.083       .  S
C1035      N1319   1.366       .  A
H1036      C2761   1.079       .  S
N1038      C1618   1.365   1_554  A
N1038      C1615   1.355   1_554  A
C1039      C1118   1.473       .  S
C1039      N1326   1.355       .  A
C1039      C1040   1.381       .  A
C1040      C1041   1.366       .  A
C1040      H1043   1.079       .  S
C1041      C1042   1.380       .  A
C1041      H1044   1.083       .  S
C1042      N1326   1.365       .  A
O1045      C1060   1.262       .  A
O1045     Al1053   1.886       .  S
C1046      O1344   1.249       .  A
C1046      O1047   1.271       .  A
C1046      C1111   1.473       .  S
O1047     Al1049   1.946       .  S
O1048      C1050   1.270       .  A
O1048     Al1049   1.930       .  S
Al1049     O1057   1.907       .  S
Al1049     O1059   1.951       .  S
Al1049     O1058   1.804       .  S
C1050      O1063   1.255       .  A
C1050      N1067   1.438       .  S
O1051      C1061   1.255       .  A
O1051     Al1053   1.879       .  S
O1052      C1641   1.261   1_554  A
O1052     Al1062   1.915       .  S
Al1053     O1066   1.910       .  S
Al1053     O1063   1.881       .  S
Al1053     O1058   1.741       .  S
O1054      C1637   1.259   1_554  A
O1054     Al1062   1.936       .  S
O1055      C1640   1.266   1_554  A
O1055     Al1062   1.922       .  S
O1056      C1622   1.249   1_554  A
O1056     Al1062   1.873       .  S
O1057      C1064   1.264       .  A
O1058     Al1350   1.796       .  S
O1059      C1060   1.266       .  A
C1060      N1074   1.439       .  S
C1061      O1342   1.259       .  A
Al1062     O1634   1.796   1_554  S
C1064      O1343   1.266       .  A
C1064      C2760   1.480   1_455  S
C1065      O1340   1.261       .  A
C1065      O1066   1.259       .  A
N1067      C1071   1.366       .  A
N1067      C1068   1.355       .  A
C1068      C1100   1.481       .  S
C1068      C1069   1.387       .  A
C1069      C1070   1.371       .  A
C1069      H1072   1.079       .  S
C1070      C1071   1.374       .  A
C1070      H1073   1.083       .  S
N1074      C1078   1.365       .  A
N1074      C1075   1.355       .  A
C1075      C2738   1.473   1_455  S
C1075      C1076   1.381   1_455  A
C1076      C1077   1.366   1_655  A
C1076      H2807   1.079       .  S
C1077      C1078   1.380       .  A
C1077      H1080   1.083       .  S
H1079      C2804   1.079       .  S
O1081      C1096   1.262       .  A
O1081     Al1089   1.885       .  S
C1082      O1092   1.249       .  A
C1082      O1083   1.271       .  A
C1082      C2875   1.473   1_455  S
O1083     Al1085   1.946       .  S
O1084      C1086   1.270       .  A
O1084     Al1085   1.930       .  S
Al1085     O1093   1.908       .  S
Al1085     O1095   1.951       .  S
Al1085     O1094   1.803       .  S
C1086      O1099   1.255       .  A
C1086      N1103   1.438       .  S
O1087      C1097   1.255       .  A
O1087     Al1089   1.879       .  S
O1088      C1101   1.261       .  A
O1088     Al1098   1.915       .  S
Al1089     O1102   1.910       .  S
Al1089     O1099   1.881       .  S
Al1089     O1094   1.742       .  S
O1090      C1097   1.259       .  A
O1090     Al1098   1.937       .  S
O1091      C1100   1.266       .  A
O1091     Al1098   1.922       .  S
O1092     Al1098   1.874       .  S
O1093      C1100   1.264       .  A
O1094     Al1098   1.796       .  S
O1095      C1096   1.266       .  A
C1096      N1110   1.439       .  S
C1101      O1102   1.259       .  A
N1103      C1683   1.366   1_554  A
N1103      C1680   1.354   1_455  A
C1104      C2864   1.480       .  S
C1104      N1391   1.354   1_655  A
C1104      C1105   1.387       .  A
C1105      C1106   1.371   1_655  A
C1105      H2836   1.079       .  S
C1106      C1107   1.374       .  A
C1106      H1109   1.083       .  S
C1107      N1391   1.366       .  A
H1108      C2833   1.079       .  S
N1110      C1690   1.365   1_554  A
N1110      C1687   1.355   1_554  A
C1111      N1398   1.355       .  A
C1111      C1112   1.381       .  A
C1112      C1113   1.366       .  A
C1112      H1115   1.079       .  S
C1113      C1114   1.380       .  A
C1113      H1116   1.083       .  S
C1114      N1398   1.365       .  A
O1117      C1132   1.262       .  A
O1117     Al1125   1.886       .  S
C1118      O1416   1.249       .  A
C1118      O1119   1.271       .  A
O1119     Al1121   1.946       .  S
O1120      C1122   1.270       .  A
O1120     Al1121   1.930       .  S
Al1121     O1129   1.907       .  S
Al1121     O1131   1.951       .  S
Al1121     O1130   1.804       .  S
C1122      O1135   1.255       .  A
C1122      N1139   1.438       .  S
O1123      C1133   1.255       .  A
O1123     Al1125   1.879       .  S
O1124      C1713   1.261   1_554  A
O1124     Al1134   1.915       .  S
Al1125     O1138   1.910       .  S
Al1125     O1135   1.881       .  S
Al1125     O1130   1.741       .  S
O1126      C1709   1.259   1_554  A
O1126     Al1134   1.936       .  S
O1127      C1712   1.266   1_554  A
O1127     Al1134   1.922       .  S
O1128      C1694   1.249   1_554  A
O1128     Al1134   1.873       .  S
O1129      C1136   1.264       .  A
O1130     Al1422   1.796       .  S
O1131      C1132   1.266       .  A
C1132      N1146   1.439       .  S
C1133      O1414   1.259       .  A
Al1134     O1706   1.796   1_554  S
C1136      O1415   1.266       .  A
C1136      C2832   1.480       .  S
C1137      O1412   1.261       .  A
C1137      O1138   1.259       .  A
N1139      C1143   1.366       .  A
N1139      C1140   1.355       .  A
C1140      C1141   1.387       .  A
C1141      C1142   1.371       .  A
C1141      H1144   1.079       .  S
C1142      C1143   1.374       .  A
C1142      H1145   1.083       .  S
N1146      C1150   1.365       .  A
N1146      C1147   1.355       .  A
C1147      C2810   1.473       .  S
C1147      C1148   1.381       .  A
C1148      C1149   1.366       .  A
C1148      H2879   1.079       .  S
C1149      C1150   1.380       .  A
C1149      H1152   1.083       .  S
H1151      C2876   1.079   1_455  S
O1153      C1168   1.262       .  A
O1153     Al1161   1.886       .  S
C1154      O1164   1.249       .  A
C1154      O1155   1.271       .  A
O1155     Al1157   1.946       .  S
O1156      C1158   1.270       .  A
O1156     Al1157   1.930       .  S
Al1157     O1165   1.907       .  S
Al1157     O1167   1.951       .  S
Al1157     O1166   1.804       .  S
C1158      O1171   1.255       .  A
C1158      N1175   1.438       .  S
O1159      C1169   1.255       .  A
O1159     Al1161   1.879       .  S
O1160      C1173   1.261       .  A
O1160     Al1170   1.915       .  S
Al1161     O1174   1.910       .  S
Al1161     O1171   1.881       .  S
Al1161     O1166   1.741       .  S
O1162      C1169   1.259       .  A
O1162     Al1170   1.936       .  S
O1163      C1172   1.266       .  A
O1163     Al1170   1.922       .  S
O1164     Al1170   1.873       .  S
O1165      C1172   1.264       .  A
O1166     Al1170   1.796       .  S
O1167      C1168   1.266       .  A
C1168      N1182   1.439       .  S
C1169      C1366   1.481       .  S
C1172      C1284   1.480       .  S
C1173      O1174   1.259       .  A
C1173      C1359   1.479       .  S
C1176      N1463   1.355       .  A
C1176      C1177   1.387       .  A
C1177      C1178   1.371       .  A
C1178      C1179   1.374       .  A
C1178      H1181   1.083       .  S
C1179      C1353   1.479       .  S
C1179      N1463   1.366       .  A
C1183      C1262   1.473       .  S
C1183      N1470   1.355       .  A
C1183      C1184   1.381       .  A
C1184      C1185   1.366       .  A
C1184      H1187   1.079       .  S
C1185      C1186   1.380       .  A
C1185      H1188   1.083       .  S
C1186      C1349   1.481       .  S
C1186      N1470   1.365       .  A
O1189      C1204   1.262       .  A
O1189     Al1197   1.885       .  S
C1190      O1488   1.249       .  A
C1190      O1191   1.271       .  A
C1190      C1255   1.473       .  S
O1191     Al1193   1.946       .  S
O1192      C1194   1.270       .  A
O1192     Al1193   1.930       .  S
Al1193     O1201   1.908       .  S
Al1193     O1203   1.951       .  S
Al1193     O1202   1.803       .  S
C1194      O1207   1.255       .  A
C1194      N1211   1.438       .  S
O1195      C1205   1.255       .  A
O1195     Al1197   1.879       .  S
O1196     Al1206   1.915       .  S
Al1197     O1210   1.910       .  S
Al1197     O1207   1.881       .  S
Al1197     O1202   1.742       .  S
O1198     Al1206   1.937       .  S
O1199     Al1206   1.922       .  S
O1200     Al1206   1.873       .  S
O1201      C1208   1.264       .  A
O1202     Al1494   1.796       .  S
O1203      C1204   1.266       .  A
C1204      N1218   1.439       .  S
C1205      O1486   1.259       .  A
C1205      C1402   1.481       .  S
C1208      O1487   1.266       .  A
C1209      O1484   1.261       .  A
C1209      O1210   1.259       .  A
C1209      C1395   1.479       .  S
N1211      C1215   1.366       .  A
N1211      C1212   1.354       .  A
C1212      C1244   1.480       .  S
C1212      C1213   1.387       .  A
C1213      C1214   1.371       .  A
C1213      H1216   1.079       .  S
C1214      C1215   1.374       .  A
C1214      H1217   1.083       .  S
C1215      C1389   1.479       .  S
N1218      C1222   1.365       .  A
N1218      C1219   1.355   1_565  A
C1219      C1220   1.381       .  A
C1220      C1221   1.366   1_545  A
C1221      C1222   1.380       .  A
C1221      H1224   1.083       .  S
C1222      C1385   1.481       .  S
O1225      C1240   1.262       .  A
O1225     Al1233   1.886       .  S
C1226      O1236   1.249       .  A
C1226      O1227   1.271       .  A
O1227     Al1229   1.946       .  S
O1228      C1230   1.270       .  A
O1228     Al1229   1.930       .  S
Al1229     O1237   1.907       .  S
Al1229     O1239   1.951       .  S
Al1229     O1238   1.804       .  S
C1230      O1243   1.255       .  A
C1230      N1247   1.438       .  S
O1231      C1241   1.255       .  A
O1231     Al1233   1.879       .  S
O1232      C1245   1.261       .  A
O1232     Al1242   1.915       .  S
Al1233     O1246   1.910       .  S
Al1233     O1243   1.880       .  S
Al1233     O1238   1.741       .  S
O1234      C1241   1.259       .  A
O1234     Al1242   1.936       .  S
O1235      C1244   1.266       .  A
O1235     Al1242   1.922       .  S
O1236     Al1242   1.873       .  S
O1237      C1244   1.264       .  A
O1238     Al1242   1.796       .  S
O1239      C1240   1.266       .  A
C1240      N1254   1.439       .  S
C1241      C1438   1.481       .  S
C1245      O1246   1.259       .  A
C1245      C1431   1.479       .  S
C1248      N1535   1.355   1_545  A
C1248      C1249   1.387       .  A
C1249      C1250   1.371   1_545  A
C1250      C1251   1.374       .  A
C1250      H1253   1.083       .  S
C1251      C1425   1.479       .  S
C1251      N1535   1.366       .  A
C1255      N1542   1.355       .  A
C1255      C1256   1.381       .  A
C1256      C1257   1.366       .  A
C1256      H1259   1.079       .  S
C1257      C1258   1.380       .  A
C1257      H1260   1.083       .  S
C1258      C1421   1.481       .  S
C1258      N1542   1.365       .  A
O1261      C1276   1.262       .  A
O1261     Al1269   1.885       .  S
C1262      O1560   1.249       .  A
C1262      O1263   1.271       .  A
O1263     Al1265   1.946       .  S
O1264      C1266   1.270       .  A
O1264     Al1265   1.930       .  S
Al1265     O1273   1.908       .  S
Al1265     O1275   1.951       .  S
Al1265     O1274   1.803       .  S
C1266      O1279   1.255       .  A
C1266      N1283   1.438       .  S
O1267      C1277   1.255       .  A
O1267     Al1269   1.879       .  S
O1268     Al1278   1.915       .  S
Al1269     O1282   1.910       .  S
Al1269     O1279   1.881       .  S
Al1269     O1274   1.742       .  S
O1270     Al1278   1.937       .  S
O1271     Al1278   1.922       .  S
O1272     Al1278   1.873       .  S
O1273      C1280   1.264       .  A
O1274     Al1566   1.796       .  S
O1275      C1276   1.266       .  A
C1276      N1290   1.439       .  S
C1277      O1558   1.259       .  A
C1277      C1330   1.481       .  S
C1280      O1559   1.266       .  A
C1281      O1556   1.261       .  A
C1281      O1282   1.259       .  A
C1281      C1323   1.479       .  S
N1283      C1287   1.366       .  A
N1283      C1284   1.354       .  A
C1284      C1285   1.387       .  A
C1285      C1286   1.371       .  A
C1285      H1288   1.079       .  S
C1286      C1287   1.374       .  A
C1286      H1289   1.083       .  S
C1287      C1317   1.479       .  S
N1290      C1294   1.365       .  A
N1290      C1291   1.355       .  A
C1291      C1292   1.381       .  A
C1292      C1293   1.366       .  A
C1293      C1294   1.380       .  A
C1293      H1296   1.083       .  S
C1294      C1313   1.481       .  S
O1297      C1312   1.262       .  A
O1297     Al1305   1.885       .  S
C1298      O1308   1.249       .  A
C1298      O1299   1.271       .  A
C1298      C3091   1.473       .  S
O1299     Al1301   1.946       .  S
O1300      C1302   1.270       .  A
O1300     Al1301   1.930       .  S
Al1301     O1309   1.908       .  S
Al1301     O1311   1.951       .  S
Al1301     O1310   1.803       .  S
C1302      O1315   1.255       .  A
C1302      N1319   1.438       .  S
O1303      C1313   1.255       .  A
O1303     Al1305   1.879       .  S
O1304      C1317   1.261       .  A
O1304     Al1314   1.915       .  S
Al1305     O1318   1.910       .  S
Al1305     O1315   1.881       .  S
Al1305     O1310   1.742       .  S
O1306      C1313   1.259       .  A
O1306     Al1314   1.937       .  S
O1307      C1316   1.266       .  A
O1307     Al1314   1.922       .  S
O1308     Al1314   1.873       .  S
O1309      C1316   1.264       .  A
O1310     Al1314   1.796       .  S
O1311      C1312   1.266       .  A
C1312      N1326   1.439       .  S
C1316      C1428   1.481       .  S
C1317      O1318   1.259       .  A
C1320      C3080   1.480       .  S
C1320      N1607   1.354       .  A
C1320      C1321   1.387       .  A
C1321      C1322   1.371       .  A
C1321      H3052   1.079       .  S
C1322      C1323   1.374       .  A
C1322      H1325   1.083       .  S
C1323      N1607   1.366       .  A
H1324      C3049   1.079       .  S
C1327      C1406   1.473       .  S
C1327      N1614   1.355       .  A
C1327      C1328   1.381       .  A
C1328      C1329   1.366       .  A
C1328      H1331   1.079       .  S
C1329      C1330   1.380       .  A
C1329      H1332   1.083       .  S
C1330      N1614   1.365       .  A
O1333      C1348   1.262       .  A
O1333     Al1341   1.886       .  S
C1334      O1632   1.249       .  A
C1334      O1335   1.271       .  A
C1334      C1399   1.473       .  S
O1335     Al1337   1.946       .  S
O1336      C1338   1.270       .  A
O1336     Al1337   1.930       .  S
Al1337     O1345   1.907       .  S
Al1337     O1347   1.951       .  S
Al1337     O1346   1.804       .  S
C1338      O1351   1.255       .  A
C1338      N1355   1.438       .  S
O1339      C1349   1.255       .  A
O1339     Al1341   1.879       .  S
O1340     Al1350   1.915       .  S
Al1341     O1354   1.910       .  S
Al1341     O1351   1.881       .  S
Al1341     O1346   1.741       .  S
O1342     Al1350   1.936       .  S
O1343     Al1350   1.922       .  S
O1344     Al1350   1.873       .  S
O1345      C1352   1.264       .  A
O1346     Al1638   1.796       .  S
O1347      C1348   1.266       .  A
C1348      N1362   1.439       .  S
C1349      O1630   1.259       .  A
C1352      O1631   1.266       .  A
C1352      C3048   1.480   1_455  S
C1353      O1628   1.261       .  A
C1353      O1354   1.259       .  A
N1355      C1359   1.366       .  A
N1355      C1356   1.355       .  A
C1356      C1388   1.481       .  S
C1356      C1357   1.387       .  A
C1357      C1358   1.371       .  A
C1357      H1360   1.079       .  S
C1358      C1359   1.374       .  A
C1358      H1361   1.083       .  S
N1362      C1366   1.365       .  A
N1362      C1363   1.355       .  A
C1363      C3026   1.473   1_455  S
C1363      C1364   1.381   1_455  A
C1364      C1365   1.366   1_655  A
C1364      H3095   1.079       .  S
C1365      C1366   1.380       .  A
C1365      H1368   1.083       .  S
H1367      C3092   1.079       .  S
O1369      C1384   1.262       .  A
O1369     Al1377   1.885       .  S
C1370      O1380   1.249       .  A
C1370      O1371   1.271       .  A
C1370      C3163   1.473   1_455  S
O1371     Al1373   1.946       .  S
O1372      C1374   1.270       .  A
O1372     Al1373   1.930       .  S
Al1373     O1381   1.908       .  S
Al1373     O1383   1.951       .  S
Al1373     O1382   1.803       .  S
C1374      O1387   1.255       .  A
C1374      N1391   1.438       .  S
O1375      C1385   1.255       .  A
O1375     Al1377   1.879       .  S
O1376      C1389   1.261       .  A
O1376     Al1386   1.915       .  S
Al1377     O1390   1.910       .  S
Al1377     O1387   1.881       .  S
Al1377     O1382   1.742       .  S
O1378      C1385   1.259       .  A
O1378     Al1386   1.937       .  S
O1379      C1388   1.266       .  A
O1379     Al1386   1.922       .  S
O1380     Al1386   1.874       .  S
O1381      C1388   1.264       .  A
O1382     Al1386   1.796       .  S
O1383      C1384   1.266       .  A
C1384      N1398   1.439       .  S
C1389      O1390   1.259       .  A
C1392      C3152   1.480       .  S
C1392      N1679   1.354   1_655  A
C1392      C1393   1.387       .  A
C1393      C1394   1.371   1_655  A
C1393      H3124   1.079       .  S
C1394      C1395   1.374       .  A
C1394      H1397   1.083       .  S
C1395      N1679   1.366       .  A
H1396      C3121   1.079       .  S
C1399      N1686   1.355       .  A
C1399      C1400   1.381       .  A
C1400      C1401   1.366       .  A
C1400      H1403   1.079       .  S
C1401      C1402   1.380       .  A
C1401      H1404   1.083       .  S
C1402      N1686   1.365       .  A
O1405      C1420   1.262       .  A
O1405     Al1413   1.886       .  S
C1406      O1704   1.249       .  A
C1406      O1407   1.271       .  A
O1407     Al1409   1.946       .  S
O1408      C1410   1.270       .  A
O1408     Al1409   1.930       .  S
Al1409     O1417   1.907       .  S
Al1409     O1419   1.951       .  S
Al1409     O1418   1.804       .  S
C1410      O1423   1.255       .  A
C1410      N1427   1.438       .  S
O1411      C1421   1.255       .  A
O1411     Al1413   1.879       .  S
O1412     Al1422   1.915       .  S
Al1413     O1426   1.910       .  S
Al1413     O1423   1.881       .  S
Al1413     O1418   1.741       .  S
O1414     Al1422   1.936       .  S
O1415     Al1422   1.922       .  S
O1416     Al1422   1.873       .  S
O1417      C1424   1.264       .  A
O1418     Al1710   1.796       .  S
O1419      C1420   1.266       .  A
C1420      N1434   1.439       .  S
C1421      O1702   1.259       .  A
C1424      O1703   1.266       .  A
C1424      C3120   1.480       .  S
C1425      O1700   1.261       .  A
C1425      O1426   1.259       .  A
N1427      C1431   1.366       .  A
N1427      C1428   1.355       .  A
C1428      C1429   1.387       .  A
C1429      C1430   1.371       .  A
C1429      H1432   1.079       .  S
C1430      C1431   1.374       .  A
C1430      H1433   1.083       .  S
N1434      C1438   1.365       .  A
N1434      C1435   1.355       .  A
C1435      C3098   1.473       .  S
C1435      C1436   1.381       .  A
C1436      C1437   1.366       .  A
C1436      H3167   1.079       .  S
C1437      C1438   1.380       .  A
C1437      H1440   1.083       .  S
H1439      C3164   1.079   1_455  S
O1441      C1456   1.262       .  A
O1441     Al1449   1.886       .  S
C1442      O1452   1.249       .  A
C1442      O1443   1.271       .  A
O1443     Al1445   1.946       .  S
O1444      C1446   1.270       .  A
O1444     Al1445   1.930       .  S
Al1445     O1453   1.907       .  S
Al1445     O1455   1.951       .  S
Al1445     O1454   1.804       .  S
C1446      O1459   1.255       .  A
C1446      N1463   1.438       .  S
O1447      C1457   1.255       .  A
O1447     Al1449   1.879       .  S
O1448      C1461   1.261       .  A
O1448     Al1458   1.915       .  S
Al1449     O1462   1.910       .  S
Al1449     O1459   1.881       .  S
Al1449     O1454   1.741       .  S
O1450      C1457   1.259       .  A
O1450     Al1458   1.936       .  S
O1451      C1460   1.266       .  A
O1451     Al1458   1.922       .  S
O1452     Al1458   1.873       .  S
O1453      C1460   1.264       .  A
O1454     Al1458   1.796       .  S
O1455      C1456   1.266       .  A
C1456      N1470   1.439       .  S
C1457      C1654   1.481       .  S
C1460      C1572   1.480       .  S
C1461      O1462   1.259       .  A
C1461      C1647   1.479       .  S
C1464      C1465   1.387   1_554  A
C1465      C1466   1.371       .  A
C1466      C1467   1.374       .  A
C1466      H1469   1.083       .  S
C1467      C1641   1.479       .  S
C1471      C1550   1.473       .  S
C1471      C1472   1.381       .  A
C1472      C1473   1.366       .  A
C1472      H1475   1.079       .  S
C1473      C1474   1.380       .  A
C1473      H1476   1.083       .  S
C1474      C1637   1.481       .  S
O1477      C1492   1.262       .  A
O1477     Al1485   1.885       .  S
C1478      O1479   1.271       .  A
C1478      C1543   1.473       .  S
O1479     Al1481   1.946       .  S
O1480      C1482   1.270       .  A
O1480     Al1481   1.930       .  S
Al1481     O1489   1.908       .  S
Al1481     O1491   1.951       .  S
Al1481     O1490   1.803       .  S
C1482      O1495   1.255       .  A
C1482      N1499   1.438       .  S
O1483      C1493   1.255       .  A
O1483     Al1485   1.879       .  S
O1484     Al1494   1.915       .  S
Al1485     O1498   1.910       .  S
Al1485     O1495   1.881       .  S
Al1485     O1490   1.742       .  S
O1486     Al1494   1.937       .  S
O1487     Al1494   1.922       .  S
O1488     Al1494   1.873       .  S
O1489      C1496   1.264       .  A
O1491      C1492   1.266       .  A
C1492      N1506   1.439       .  S
C1493      C1690   1.481       .  S
C1497      O1498   1.259       .  A
C1497      C1683   1.479       .  S
N1499      C1503   1.366       .  A
N1499      C1500   1.354       .  A
C1500      C1532   1.480       .  S
C1500      C1501   1.387       .  A
C1501      C1502   1.371       .  A
C1501      H1504   1.079       .  S
C1502      C1503   1.374       .  A
C1502      H1505   1.083       .  S
C1503      C1677   1.479       .  S
N1506      C1510   1.365       .  A
N1506      C1507   1.355   1_565  A
C1507      C1508   1.381       .  A
C1508      C1509   1.366   1_545  A
C1509      C1510   1.380       .  A
C1509      H1512   1.083       .  S
C1510      C1673   1.481       .  S
O1513      C1528   1.262       .  A
O1513     Al1521   1.886       .  S
C1514      O1524   1.249       .  A
C1514      O1515   1.271       .  A
O1515     Al1517   1.946       .  S
O1516      C1518   1.270       .  A
O1516     Al1517   1.930       .  S
Al1517     O1525   1.907       .  S
Al1517     O1527   1.951       .  S
Al1517     O1526   1.804       .  S
C1518      O1531   1.255       .  A
C1518      N1535   1.438       .  S
O1519      C1529   1.255       .  A
O1519     Al1521   1.879       .  S
O1520      C1533   1.261       .  A
O1520     Al1530   1.915       .  S
Al1521     O1534   1.910       .  S
Al1521     O1531   1.880       .  S
Al1521     O1526   1.741       .  S
O1522      C1529   1.259       .  A
O1522     Al1530   1.936       .  S
O1523      C1532   1.266       .  A
O1523     Al1530   1.922       .  S
O1524     Al1530   1.873       .  S
O1525      C1532   1.264       .  A
O1526     Al1530   1.796       .  S
O1527      C1528   1.266       .  A
C1528      N1542   1.439       .  S
C1529      C1726   1.481       .  S
C1533      O1534   1.259       .  A
C1533      C1719   1.479       .  S
C1536      C1537   1.387   1_554  A
C1537      C1538   1.371   1_545  A
C1538      C1539   1.374       .  A
C1538      H1541   1.083       .  S
C1539      C1713   1.479       .  S
C1543      C1544   1.381       .  A
C1544      C1545   1.366       .  A
C1544      H1547   1.079       .  S
C1545      C1546   1.380       .  A
C1545      H1548   1.083       .  S
C1546      C1709   1.481       .  S
O1549      C1564   1.262       .  A
O1549     Al1557   1.885       .  S
C1550      O1551   1.271       .  A
O1551     Al1553   1.946       .  S
O1552      C1554   1.270       .  A
O1552     Al1553   1.930       .  S
Al1553     O1561   1.908       .  S
Al1553     O1563   1.951       .  S
Al1553     O1562   1.803       .  S
C1554      O1567   1.255       .  A
C1554      N1571   1.438       .  S
O1555      C1565   1.255       .  A
O1555     Al1557   1.879       .  S
O1556     Al1566   1.915       .  S
Al1557     O1570   1.910       .  S
Al1557     O1567   1.881       .  S
Al1557     O1562   1.742       .  S
O1558     Al1566   1.937       .  S
O1559     Al1566   1.922       .  S
O1560     Al1566   1.873       .  S
O1561      C1568   1.264       .  A
O1563      C1564   1.266       .  A
C1564      N1578   1.439       .  S
C1565      C1618   1.481       .  S
C1569      O1570   1.259       .  A
C1569      C1611   1.479       .  S
N1571      C1575   1.366       .  A
N1571      C1572   1.354       .  A
C1572      C1573   1.387       .  A
C1573      C1574   1.371       .  A
C1573      H1576   1.079       .  S
C1574      C1575   1.374       .  A
C1574      H1577   1.083       .  S
C1575      C1605   1.479       .  S
N1578      C1582   1.365       .  A
N1578      C1579   1.355       .  A
C1579      C1580   1.381       .  A
C1580      C1581   1.366       .  A
C1581      C1582   1.380       .  A
C1581      H1584   1.083       .  S
C1582      C1601   1.481       .  S
O1585      C1600   1.262       .  A
O1585     Al1593   1.885       .  S
C1586      O1596   1.249       .  A
C1586      O1587   1.271       .  A
C1586      C3379   1.473       .  S
O1587     Al1589   1.946       .  S
O1588      C1590   1.270       .  A
O1588     Al1589   1.930       .  S
Al1589     O1597   1.908       .  S
Al1589     O1599   1.951       .  S
Al1589     O1598   1.803       .  S
C1590      O1603   1.255       .  A
C1590      N1607   1.438       .  S
O1591      C1601   1.255       .  A
O1591     Al1593   1.879       .  S
O1592      C1605   1.261       .  A
O1592     Al1602   1.915       .  S
Al1593     O1606   1.910       .  S
Al1593     O1603   1.881       .  S
Al1593     O1598   1.742       .  S
O1594      C1601   1.259       .  A
O1594     Al1602   1.937       .  S
O1595      C1604   1.266       .  A
O1595     Al1602   1.922       .  S
O1596     Al1602   1.873       .  S
O1597      C1604   1.264       .  A
O1598     Al1602   1.796       .  S
O1599      C1600   1.266       .  A
C1600      N1614   1.439       .  S
C1604      C1716   1.481       .  S
C1605      O1606   1.259       .  A
C1608      C3368   1.480   1_554  S
C1608      C1609   1.387   1_554  A
C1609      C1610   1.371       .  A
C1609      H3340   1.079       .  S
C1610      C1611   1.374       .  A
C1610      H1613   1.083       .  S
H1612      C3337   1.079       .  S
C1615      C1694   1.473       .  S
C1615      C1616   1.381       .  A
C1616      C1617   1.366       .  A
C1616      H1619   1.079       .  S
C1617      C1618   1.380       .  A
C1617      H1620   1.083       .  S
O1621      C1636   1.262       .  A
O1621     Al1629   1.886       .  S
C1622      O1623   1.271       .  A
C1622      C1687   1.473       .  S
O1623     Al1625   1.946       .  S
O1624      C1626   1.270       .  A
O1624     Al1625   1.930       .  S
Al1625     O1633   1.907       .  S
Al1625     O1635   1.951       .  S
Al1625     O1634   1.804       .  S
C1626      O1639   1.255       .  A
C1626      N1643   1.438       .  S
O1627      C1637   1.255       .  A
O1627     Al1629   1.879       .  S
O1628     Al1638   1.915       .  S
Al1629     O1642   1.910       .  S
Al1629     O1639   1.881       .  S
Al1629     O1634   1.741       .  S
O1630     Al1638   1.936       .  S
O1631     Al1638   1.922       .  S
O1632     Al1638   1.873       .  S
O1633      C1640   1.264       .  A
O1635      C1636   1.266       .  A
C1636      N1650   1.439       .  S
C1640      C3336   1.480   1_456  S
C1641      O1642   1.259       .  A
N1643      C1647   1.366       .  A
N1643      C1644   1.355       .  A
C1644      C1676   1.481       .  S
C1644      C1645   1.387       .  A
C1645      C1646   1.371       .  A
C1645      H1648   1.079       .  S
C1646      C1647   1.374       .  A
C1646      H1649   1.083       .  S
N1650      C1654   1.365       .  A
N1650      C1651   1.355       .  A
C1651      C3314   1.473   1_455  S
C1651      C1652   1.381   1_455  A
C1652      C1653   1.366   1_655  A
C1652      H3383   1.079       .  S
C1653      C1654   1.380       .  A
C1653      H1656   1.083       .  S
H1655      C3380   1.079       .  S
O1657      C1672   1.262       .  A
O1657     Al1665   1.885       .  S
C1658      O1668   1.249       .  A
C1658      O1659   1.271       .  A
C1658      C3451   1.473   1_455  S
O1659     Al1661   1.946       .  S
O1660      C1662   1.270       .  A
O1660     Al1661   1.930       .  S
Al1661     O1669   1.908       .  S
Al1661     O1671   1.951       .  S
Al1661     O1670   1.803       .  S
C1662      O1675   1.255       .  A
C1662      N1679   1.438       .  S
O1663      C1673   1.255       .  A
O1663     Al1665   1.879       .  S
O1664      C1677   1.261       .  A
O1664     Al1674   1.915       .  S
Al1665     O1678   1.910       .  S
Al1665     O1675   1.881       .  S
Al1665     O1670   1.742       .  S
O1666      C1673   1.259       .  A
O1666     Al1674   1.937       .  S
O1667      C1676   1.266       .  A
O1667     Al1674   1.922       .  S
O1668     Al1674   1.874       .  S
O1669      C1676   1.264       .  A
O1670     Al1674   1.796       .  S
O1671      C1672   1.266       .  A
C1672      N1686   1.439       .  S
C1677      O1678   1.259       .  A
C1680      C3440   1.480   1_554  S
C1680      C1681   1.387   1_554  A
C1681      C1682   1.371   1_655  A
C1681      H3412   1.079       .  S
C1682      C1683   1.374       .  A
C1682      H1685   1.083       .  S
H1684      C3409   1.079       .  S
C1687      C1688   1.381       .  A
C1688      C1689   1.366       .  A
C1688      H1691   1.079       .  S
C1689      C1690   1.380       .  A
C1689      H1692   1.083       .  S
O1693      C1708   1.262       .  A
O1693     Al1701   1.886       .  S
C1694      O1695   1.271       .  A
O1695     Al1697   1.946       .  S
O1696      C1698   1.270       .  A
O1696     Al1697   1.930       .  S
Al1697     O1705   1.907       .  S
Al1697     O1707   1.951       .  S
Al1697     O1706   1.804       .  S
C1698      O1711   1.255       .  A
C1698      N1715   1.438       .  S
O1699      C1709   1.255       .  A
O1699     Al1701   1.879       .  S
O1700     Al1710   1.915       .  S
Al1701     O1714   1.910       .  S
Al1701     O1711   1.881       .  S
Al1701     O1706   1.741       .  S
O1702     Al1710   1.936       .  S
O1703     Al1710   1.922       .  S
O1704     Al1710   1.873       .  S
O1705      C1712   1.264       .  A
O1707      C1708   1.266       .  A
C1708      N1722   1.439       .  S
C1712      C3408   1.480   1_556  S
C1713      O1714   1.259       .  A
N1715      C1719   1.366       .  A
N1715      C1716   1.355       .  A
C1716      C1717   1.387       .  A
C1717      C1718   1.371       .  A
C1717      H1720   1.079       .  S
C1718      C1719   1.374       .  A
C1718      H1721   1.083       .  S
N1722      C1726   1.365       .  A
N1722      C1723   1.355       .  A
C1723      C3386   1.473       .  S
C1723      C1724   1.381       .  A
C1724      C1725   1.366       .  A
C1724      H3455   1.079       .  S
C1725      C1726   1.380       .  A
C1725      H1728   1.083       .  S
H1727      C3452   1.079   1_455  S
O1729      C1744   1.262       .  A
O1729     Al1737   1.886       .  S
C1730      O1740   1.249       .  A
C1730      O1731   1.271       .  A
C1730      C2659   1.473       .  S
O1731     Al1733   1.946       .  S
O1732      C1734   1.270       .  A
O1732     Al1733   1.930       .  S
Al1733     O1741   1.907       .  S
Al1733     O1743   1.951       .  S
Al1733     O1742   1.804       .  S
C1734      O1747   1.255       .  A
C1734      N1751   1.438       .  S
O1735      C1745   1.255       .  A
O1735     Al1737   1.879       .  S
O1736      C1749   1.261       .  A
O1736     Al1746   1.915       .  S
Al1737     O1750   1.910       .  S
Al1737     O1747   1.881       .  S
Al1737     O1742   1.741       .  S
O1738      C1745   1.259       .  A
O1738     Al1746   1.936       .  S
O1739      C1748   1.266       .  A
O1739     Al1746   1.922       .  S
O1740     Al1746   1.873       .  S
O1741      C1748   1.264       .  A
O1742     Al1746   1.796       .  S
O1743      C1744   1.266       .  A
C1744      N1758   1.439       .  S
C1745      C1942   1.481       .  S
C1748      C1860   1.480       .  S
C1749      O1750   1.259       .  A
C1749      C1935   1.479       .  S
N1751      C2331   1.366   1_554  A
N1751      C2328   1.355       .  A
C1752      C2648   1.481   1_545  S
C1752      N2039   1.355       .  A
C1752      C1753   1.387   1_545  A
C1753      C1754   1.371   1_565  A
C1753      H2620   1.079       .  S
C1754      C1755   1.374       .  A
C1754      H1757   1.083       .  S
C1755      C1929   1.479       .  S
C1755      N2039   1.366       .  A
H1756      C2617   1.079       .  S
N1758      C2338   1.365   1_554  A
N1758      C2335   1.355   1_554  A
C1759      C1838   1.473       .  S
C1759      N2046   1.355       .  A
C1759      C1760   1.381       .  A
C1760      C1761   1.366       .  A
C1760      H1763   1.079       .  S
C1761      C1762   1.380       .  A
C1761      H1764   1.083       .  S
C1762      C1925   1.481       .  S
C1762      N2046   1.365       .  A
O1765      C1780   1.262       .  A
O1765     Al1773   1.885       .  S
C1766      O2064   1.249       .  A
C1766      O1767   1.271       .  A
C1766      C1831   1.473       .  S
O1767     Al1769   1.946       .  S
O1768      C1770   1.270       .  A
O1768     Al1769   1.930       .  S
Al1769     O1777   1.908       .  S
Al1769     O1779   1.951       .  S
Al1769     O1778   1.803       .  S
C1770      O1783   1.255       .  A
C1770      N1787   1.438       .  S
O1771      C1781   1.255       .  A
O1771     Al1773   1.879       .  S
O1772      C2361   1.261   1_554  A
O1772     Al1782   1.915       .  S
Al1773     O1786   1.910       .  S
Al1773     O1783   1.881       .  S
Al1773     O1778   1.742       .  S
O1774      C2357   1.259   1_554  A
O1774     Al1782   1.937       .  S
O1775      C2360   1.266   1_554  A
O1775     Al1782   1.922       .  S
O1776      C2342   1.249   1_554  A
O1776     Al1782   1.873       .  S
O1777      C1784   1.264       .  A
O1778     Al2070   1.796       .  S
O1779      C1780   1.266       .  A
C1780      N1794   1.439       .  S
C1781      O2062   1.259       .  A
C1781      C1978   1.481       .  S
Al1782     O2354   1.796   1_554  S
C1784      O2063   1.266       .  A
C1784      C2616   1.481       .  S
C1785      O2060   1.261       .  A
C1785      O1786   1.259       .  A
C1785      C1971   1.479       .  S
N1787      C1791   1.366       .  A
N1787      C1788   1.354       .  A
C1788      C1820   1.480       .  S
C1788      C1789   1.387       .  A
C1789      C1790   1.371       .  A
C1789      H1792   1.079       .  S
C1790      C1791   1.374       .  A
C1790      H1793   1.083       .  S
C1791      C1965   1.479       .  S
N1794      C1798   1.365       .  A
N1794      C1795   1.355       .  A
C1795      C2594   1.473       .  S
C1795      C1796   1.381       .  A
C1796      C1797   1.366       .  A
C1796      H2663   1.079       .  S
C1797      C1798   1.380       .  A
C1797      H1800   1.083       .  S
C1798      C1961   1.481       .  S
H1799      C2660   1.079       .  S
O1801      C1816   1.262       .  A
O1801     Al1809   1.886       .  S
C1802      O1812   1.249       .  A
C1802      O1803   1.271       .  A
C1802      C2731   1.473       .  S
O1803     Al1805   1.946       .  S
O1804      C1806   1.270       .  A
O1804     Al1805   1.930       .  S
Al1805     O1813   1.907       .  S
Al1805     O1815   1.951       .  S
Al1805     O1814   1.804       .  S
C1806      O1819   1.255       .  A
C1806      N1823   1.438       .  S
O1807      C1817   1.255       .  A
O1807     Al1809   1.879       .  S
O1808      C1821   1.261       .  A
O1808     Al1818   1.915       .  S
Al1809     O1822   1.910       .  S
Al1809     O1819   1.880       .  S
Al1809     O1814   1.741       .  S
O1810      C1817   1.259       .  A
O1810     Al1818   1.936       .  S
O1811      C1820   1.266       .  A
O1811     Al1818   1.922       .  S
O1812     Al1818   1.873       .  S
O1813      C1820   1.264       .  A
O1814     Al1818   1.796       .  S
O1815      C1816   1.266       .  A
C1816      N1830   1.439       .  S
C1817      C2014   1.481       .  S
C1821      O1822   1.259       .  A
C1821      C2007   1.479       .  S
N1823      C2403   1.366   1_554  A
N1823      C2400   1.355       .  A
C1824      C2720   1.481       .  S
C1824      N2111   1.355       .  A
C1824      C1825   1.387       .  A
C1825      C1826   1.371       .  A
C1825      H2692   1.079       .  S
C1826      C1827   1.374       .  A
C1826      H1829   1.083       .  S
C1827      C2001   1.479       .  S
C1827      N2111   1.366       .  A
H1828      C2689   1.079       .  S
N1830      C2410   1.365   1_554  A
N1830      C2407   1.355   1_554  A
C1831      N2118   1.355       .  A
C1831      C1832   1.381       .  A
C1832      C1833   1.366       .  A
C1832      H1835   1.079       .  S
C1833      C1834   1.380       .  A
C1833      H1836   1.083       .  S
C1834      C1997   1.481       .  S
C1834      N2118   1.365       .  A
O1837      C1852   1.262       .  A
O1837     Al1845   1.885       .  S
C1838      O2136   1.249       .  A
C1838      O1839   1.271       .  A
O1839     Al1841   1.946       .  S
O1840      C1842   1.270       .  A
O1840     Al1841   1.930       .  S
Al1841     O1849   1.908       .  S
Al1841     O1851   1.951       .  S
Al1841     O1850   1.803       .  S
C1842      O1855   1.255       .  A
C1842      N1859   1.438       .  S
O1843      C1853   1.255       .  A
O1843     Al1845   1.879       .  S
O1844      C2433   1.261   1_554  A
O1844     Al1854   1.915       .  S
Al1845     O1858   1.910       .  S
Al1845     O1855   1.881       .  S
Al1845     O1850   1.742       .  S
O1846      C2429   1.259   1_554  A
O1846     Al1854   1.937       .  S
O1847      C2432   1.266   1_554  A
O1847     Al1854   1.922       .  S
O1848      C2414   1.249   1_554  A
O1848     Al1854   1.873       .  S
O1849      C1856   1.264       .  A
O1850     Al2142   1.796       .  S
O1851      C1852   1.266       .  A
C1852      N1866   1.439       .  S
C1853      O2134   1.259       .  A
C1853      C1906   1.481       .  S
Al1854     O2426   1.796   1_554  S
C1856      O2135   1.266       .  A
C1856      C2688   1.481       .  S
C1857      O2132   1.261       .  A
C1857      O1858   1.259       .  A
C1857      C1899   1.479       .  S
N1859      C1863   1.366       .  A
N1859      C1860   1.354       .  A
C1860      C1861   1.387       .  A
C1861      C1862   1.371       .  A
C1861      H1864   1.079       .  S
C1862      C1863   1.374       .  A
C1862      H1865   1.083       .  S
C1863      C1893   1.479       .  S
N1866      C1870   1.365       .  A
N1866      C1867   1.355       .  A
C1867      C2666   1.473   1_545  S
C1867      C1868   1.381       .  A
C1868      C1869   1.366       .  A
C1868      H2735   1.079   1_545  S
C1869      C1870   1.380       .  A
C1869      H1872   1.083       .  S
C1870      C1889   1.481       .  S
H1871      C2732   1.079       .  S
O1873      C1888   1.262       .  A
O1873     Al1881   1.885       .  S
C1874      O1884   1.249       .  A
C1874      O1875   1.271       .  A
O1875     Al1877   1.946       .  S
O1876      C1878   1.270       .  A
O1876     Al1877   1.930       .  S
Al1877     O1885   1.908       .  S
Al1877     O1887   1.951       .  S
Al1877     O1886   1.803       .  S
C1878      O1891   1.255       .  A
C1878      N1895   1.438       .  S
O1879      C1889   1.255       .  A
O1879     Al1881   1.879       .  S
O1880      C1893   1.261       .  A
O1880     Al1890   1.915       .  S
Al1881     O1894   1.910       .  S
Al1881     O1891   1.881       .  S
Al1881     O1886   1.742       .  S
O1882      C1889   1.259       .  A
O1882     Al1890   1.937       .  S
O1883      C1892   1.266       .  A
O1883     Al1890   1.922       .  S
O1884     Al1890   1.873       .  S
O1885      C1892   1.264       .  A
O1886     Al1890   1.796       .  S
O1887      C1888   1.266       .  A
C1888      N1902   1.439       .  S
C1892      C2004   1.481       .  S
C1893      O1894   1.259       .  A
N1895      C2475   1.366   1_554  A
N1895      C2472   1.354       .  A
C1896      N2183   1.354       .  A
C1896      C1897   1.387   1_655  A
C1897      C1898   1.371   1_455  A
C1898      C1899   1.374       .  A
C1898      H1901   1.083       .  S
C1899      N2183   1.366       .  A
N1902      C2482   1.365   1_554  A
N1902      C2479   1.355   1_554  A
C1903      C1982   1.473       .  S
C1903      N2190   1.355       .  A
C1903      C1904   1.381       .  A
C1904      C1905   1.366       .  A
C1904      H1907   1.079       .  S
C1905      C1906   1.380       .  A
C1905      H1908   1.083       .  S
C1906      N2190   1.365       .  A
O1909      C1924   1.262       .  A
O1909     Al1917   1.886       .  S
C1910      O2208   1.249       .  A
C1910      O1911   1.271       .  A
C1910      C1975   1.473       .  S
O1911     Al1913   1.946       .  S
O1912      C1914   1.270       .  A
O1912     Al1913   1.930       .  S
Al1913     O1921   1.907       .  S
Al1913     O1923   1.951       .  S
Al1913     O1922   1.804       .  S
C1914      O1927   1.255       .  A
C1914      N1931   1.438       .  S
O1915      C1925   1.255       .  A
O1915     Al1917   1.879       .  S
O1916      C2505   1.261   1_554  A
O1916     Al1926   1.915       .  S
Al1917     O1930   1.910       .  S
Al1917     O1927   1.881       .  S
Al1917     O1922   1.741       .  S
O1918      C2501   1.259   1_554  A
O1918     Al1926   1.936       .  S
O1919      C2504   1.266   1_554  A
O1919     Al1926   1.922       .  S
O1920      C2486   1.249   1_554  A
O1920     Al1926   1.873       .  S
O1921      C1928   1.264       .  A
O1922     Al2214   1.796       .  S
O1923      C1924   1.266       .  A
C1924      N1938   1.439       .  S
C1925      O2206   1.259       .  A
Al1926     O2498   1.796   1_554  S
C1928      O2207   1.266       .  A
C1929      O2204   1.261       .  A
C1929      O1930   1.259       .  A
N1931      C1935   1.366       .  A
N1931      C1932   1.355       .  A
C1932      C1964   1.481       .  S
C1932      C1933   1.387       .  A
C1933      C1934   1.371       .  A
C1933      H1936   1.079       .  S
C1934      C1935   1.374       .  A
C1934      H1937   1.083       .  S
N1938      C1942   1.365       .  A
N1938      C1939   1.355       .  A
C1939      C1940   1.381       .  A
C1940      C1941   1.366       .  A
C1941      C1942   1.380       .  A
C1941      H1944   1.083       .  S
O1945      C1960   1.262       .  A
O1945     Al1953   1.885       .  S
C1946      O1956   1.249       .  A
C1946      O1947   1.271       .  A
O1947     Al1949   1.946       .  S
O1948      C1950   1.270       .  A
O1948     Al1949   1.930       .  S
Al1949     O1957   1.908       .  S
Al1949     O1959   1.951       .  S
Al1949     O1958   1.803       .  S
C1950      O1963   1.255       .  A
C1950      N1967   1.438       .  S
O1951      C1961   1.255       .  A
O1951     Al1953   1.879       .  S
O1952      C1965   1.261       .  A
O1952     Al1962   1.915       .  S
Al1953     O1966   1.910       .  S
Al1953     O1963   1.881       .  S
Al1953     O1958   1.742       .  S
O1954      C1961   1.259       .  A
O1954     Al1962   1.937       .  S
O1955      C1964   1.266       .  A
O1955     Al1962   1.922       .  S
O1956     Al1962   1.874       .  S
O1957      C1964   1.264       .  A
O1958     Al1962   1.796       .  S
O1959      C1960   1.266       .  A
C1960      N1974   1.439       .  S
C1965      O1966   1.259       .  A
N1967      C2547   1.366   1_554  A
N1967      C2544   1.354       .  A
C1968      N2255   1.354       .  A
C1968      C1969   1.387       .  A
C1969      C1970   1.371       .  A
C1970      C1971   1.374       .  A
C1970      H1973   1.083       .  S
C1971      N2255   1.366       .  A
N1974      C2554   1.365   1_554  A
N1974      C2551   1.355   1_554  A
C1975      N2262   1.355       .  A
C1975      C1976   1.381       .  A
C1976      C1977   1.366       .  A
C1976      H1979   1.079       .  S
C1977      C1978   1.380       .  A
C1977      H1980   1.083       .  S
C1978      N2262   1.365       .  A
O1981      C1996   1.262       .  A
O1981     Al1989   1.886       .  S
C1982      O2280   1.249       .  A
C1982      O1983   1.271       .  A
O1983     Al1985   1.946       .  S
O1984      C1986   1.270       .  A
O1984     Al1985   1.930       .  S
Al1985     O1993   1.907       .  S
Al1985     O1995   1.951       .  S
Al1985     O1994   1.804       .  S
C1986      O1999   1.255       .  A
C1986      N2003   1.438       .  S
O1987      C1997   1.255       .  A
O1987     Al1989   1.879       .  S
O1988      C2577   1.261   1_554  A
O1988     Al1998   1.915       .  S
Al1989     O2002   1.910       .  S
Al1989     O1999   1.881       .  S
Al1989     O1994   1.741       .  S
O1990      C2573   1.259   1_554  A
O1990     Al1998   1.936       .  S
O1991      C2576   1.266   1_554  A
O1991     Al1998   1.922       .  S
O1992      C2558   1.249   1_554  A
O1992     Al1998   1.873       .  S
O1993      C2000   1.264       .  A
O1994     Al2286   1.796       .  S
O1995      C1996   1.266       .  A
C1996      N2010   1.439       .  S
C1997      O2278   1.259       .  A
Al1998     O2570   1.796   1_554  S
C2000      O2279   1.266       .  A
C2001      O2276   1.261       .  A
C2001      O2002   1.259       .  A
N2003      C2007   1.366       .  A
N2003      C2004   1.355       .  A
C2004      C2005   1.387       .  A
C2005      C2006   1.371       .  A
C2005      H2008   1.079       .  S
C2006      C2007   1.374       .  A
C2006      H2009   1.083       .  S
N2010      C2014   1.365       .  A
N2010      C2011   1.355       .  A
C2011      C2012   1.381       .  A
C2012      C2013   1.366       .  A
C2013      C2014   1.380       .  A
C2013      H2016   1.083       .  S
O2017      C2032   1.262       .  A
O2017     Al2025   1.886       .  S
C2018      O2028   1.249       .  A
C2018      O2019   1.271       .  A
C2018      C2947   1.473       .  S
O2019     Al2021   1.946       .  S
O2020      C2022   1.270       .  A
O2020     Al2021   1.930       .  S
Al2021     O2029   1.907       .  S
Al2021     O2031   1.951       .  S
Al2021     O2030   1.804       .  S
C2022      O2035   1.255       .  A
C2022      N2039   1.438       .  S
O2023      C2033   1.255       .  A
O2023     Al2025   1.879       .  S
O2024      C2037   1.261       .  A
O2024     Al2034   1.915       .  S
Al2025     O2038   1.910       .  S
Al2025     O2035   1.881       .  S
Al2025     O2030   1.741       .  S
O2026      C2033   1.259       .  A
O2026     Al2034   1.936       .  S
O2027      C2036   1.266       .  A
O2027     Al2034   1.922       .  S
O2028     Al2034   1.873       .  S
O2029      C2036   1.264       .  A
O2030     Al2034   1.796       .  S
O2031      C2032   1.266       .  A
C2032      N2046   1.439       .  S
C2033      C2230   1.481       .  S
C2036      C2148   1.480       .  S
C2037      O2038   1.259       .  A
C2037      C2223   1.479       .  S
C2040      C2936   1.481   1_545  S
C2040      N2327   1.355       .  A
C2040      C2041   1.387   1_545  A
C2041      C2042   1.371   1_565  A
C2041      H2908   1.079       .  S
C2042      C2043   1.374       .  A
C2042      H2045   1.083       .  S
C2043      C2217   1.479       .  S
C2043      N2327   1.366       .  A
H2044      C2905   1.079       .  S
C2047      C2126   1.473       .  S
C2047      N2334   1.355       .  A
C2047      C2048   1.381       .  A
C2048      C2049   1.366       .  A
C2048      H2051   1.079       .  S
C2049      C2050   1.380       .  A
C2049      H2052   1.083       .  S
C2050      C2213   1.481       .  S
C2050      N2334   1.365       .  A
O2053      C2068   1.262       .  A
O2053     Al2061   1.885       .  S
C2054      O2352   1.249       .  A
C2054      O2055   1.271       .  A
C2054      C2119   1.473       .  S
O2055     Al2057   1.946       .  S
O2056      C2058   1.270       .  A
O2056     Al2057   1.930       .  S
Al2057     O2065   1.908       .  S
Al2057     O2067   1.951       .  S
Al2057     O2066   1.803       .  S
C2058      O2071   1.255       .  A
C2058      N2075   1.438       .  S
O2059      C2069   1.255       .  A
O2059     Al2061   1.879       .  S
O2060     Al2070   1.915       .  S
Al2061     O2074   1.910       .  S
Al2061     O2071   1.881       .  S
Al2061     O2066   1.742       .  S
O2062     Al2070   1.937       .  S
O2063     Al2070   1.922       .  S
O2064     Al2070   1.873       .  S
O2065      C2072   1.264       .  A
O2066     Al2358   1.796       .  S
O2067      C2068   1.266       .  A
C2068      N2082   1.439       .  S
C2069      O2350   1.259       .  A
C2069      C2266   1.481       .  S
C2072      O2351   1.266       .  A
C2072      C2904   1.481       .  S
C2073      O2348   1.261       .  A
C2073      O2074   1.259       .  A
C2073      C2259   1.479       .  S
N2075      C2079   1.366       .  A
N2075      C2076   1.354       .  A
C2076      C2108   1.480       .  S
C2076      C2077   1.387       .  A
C2077      C2078   1.371       .  A
C2077      H2080   1.079       .  S
C2078      C2079   1.374       .  A
C2078      H2081   1.083       .  S
C2079      C2253   1.479       .  S
N2082      C2086   1.365       .  A
N2082      C2083   1.355       .  A
C2083      C2882   1.473       .  S
C2083      C2084   1.381       .  A
C2084      C2085   1.366       .  A
C2084      H2951   1.079       .  S
C2085      C2086   1.380       .  A
C2085      H2088   1.083       .  S
C2086      C2249   1.481       .  S
H2087      C2948   1.079       .  S
O2089      C2104   1.262       .  A
O2089     Al2097   1.886       .  S
C2090      O2100   1.249       .  A
C2090      O2091   1.271       .  A
C2090      C3019   1.473       .  S
O2091     Al2093   1.946       .  S
O2092      C2094   1.270       .  A
O2092     Al2093   1.930       .  S
Al2093     O2101   1.907       .  S
Al2093     O2103   1.951       .  S
Al2093     O2102   1.804       .  S
C2094      O2107   1.255       .  A
C2094      N2111   1.438       .  S
O2095      C2105   1.255       .  A
O2095     Al2097   1.879       .  S
O2096      C2109   1.261       .  A
O2096     Al2106   1.915       .  S
Al2097     O2110   1.910       .  S
Al2097     O2107   1.880       .  S
Al2097     O2102   1.741       .  S
O2098      C2105   1.259       .  A
O2098     Al2106   1.936       .  S
O2099      C2108   1.266       .  A
O2099     Al2106   1.922       .  S
O2100     Al2106   1.873       .  S
O2101      C2108   1.264       .  A
O2102     Al2106   1.796       .  S
O2103      C2104   1.266       .  A
C2104      N2118   1.439       .  S
C2105      C2302   1.481       .  S
C2109      O2110   1.259       .  A
C2109      C2295   1.479       .  S
C2112      C3008   1.481       .  S
C2112      N2399   1.355       .  A
C2112      C2113   1.387       .  A
C2113      C2114   1.371       .  A
C2113      H2980   1.079       .  S
C2114      C2115   1.374       .  A
C2114      H2117   1.083       .  S
C2115      C2289   1.479       .  S
C2115      N2399   1.366       .  A
H2116      C2977   1.079       .  S
C2119      N2406   1.355       .  A
C2119      C2120   1.381       .  A
C2120      C2121   1.366       .  A
C2120      H2123   1.079       .  S
C2121      C2122   1.380       .  A
C2121      H2124   1.083       .  S
C2122      C2285   1.481       .  S
C2122      N2406   1.365       .  A
O2125      C2140   1.262       .  A
O2125     Al2133   1.885       .  S
C2126      O2424   1.249       .  A
C2126      O2127   1.271       .  A
O2127     Al2129   1.946       .  S
O2128      C2130   1.270       .  A
O2128     Al2129   1.930       .  S
Al2129     O2137   1.908       .  S
Al2129     O2139   1.951       .  S
Al2129     O2138   1.803       .  S
C2130      O2143   1.255       .  A
C2130      N2147   1.438       .  S
O2131      C2141   1.255       .  A
O2131     Al2133   1.879       .  S
O2132     Al2142   1.915       .  S
Al2133     O2146   1.910       .  S
Al2133     O2143   1.881       .  S
Al2133     O2138   1.742       .  S
O2134     Al2142   1.937       .  S
O2135     Al2142   1.922       .  S
O2136     Al2142   1.873       .  S
O2137      C2144   1.264       .  A
O2138     Al2430   1.796       .  S
O2139      C2140   1.266       .  A
C2140      N2154   1.439       .  S
C2141      O2422   1.259       .  A
C2141      C2194   1.481       .  S
C2144      O2423   1.266       .  A
C2144      C2976   1.481       .  S
C2145      O2420   1.261       .  A
C2145      O2146   1.259       .  A
C2145      C2187   1.479       .  S
N2147      C2151   1.366       .  A
N2147      C2148   1.354       .  A
C2148      C2149   1.387       .  A
C2149      C2150   1.371       .  A
C2149      H2152   1.079       .  S
C2150      C2151   1.374       .  A
C2150      H2153   1.083       .  S
C2151      C2181   1.479       .  S
N2154      C2158   1.365       .  A
N2154      C2155   1.355       .  A
C2155      C2954   1.473   1_545  S
C2155      C2156   1.381       .  A
C2156      C2157   1.366       .  A
C2156      H3023   1.079   1_545  S
C2157      C2158   1.380       .  A
C2157      H2160   1.083       .  S
C2158      C2177   1.481       .  S
H2159      C3020   1.079       .  S
O2161      C2176   1.262       .  A
O2161     Al2169   1.885       .  S
C2162      O2172   1.249       .  A
C2162      O2163   1.271       .  A
O2163     Al2165   1.946       .  S
O2164      C2166   1.270       .  A
O2164     Al2165   1.930       .  S
Al2165     O2173   1.908       .  S
Al2165     O2175   1.951       .  S
Al2165     O2174   1.803       .  S
C2166      O2179   1.255       .  A
C2166      N2183   1.438       .  S
O2167      C2177   1.255       .  A
O2167     Al2169   1.879       .  S
O2168      C2181   1.261       .  A
O2168     Al2178   1.915       .  S
Al2169     O2182   1.910       .  S
Al2169     O2179   1.881       .  S
Al2169     O2174   1.742       .  S
O2170      C2177   1.259       .  A
O2170     Al2178   1.937       .  S
O2171      C2180   1.266       .  A
O2171     Al2178   1.922       .  S
O2172     Al2178   1.873       .  S
O2173      C2180   1.264       .  A
O2174     Al2178   1.796       .  S
O2175      C2176   1.266       .  A
C2176      N2190   1.439       .  S
C2180      C2292   1.481       .  S
C2181      O2182   1.259       .  A
C2184      N2471   1.354       .  A
C2184      C2185   1.387   1_655  A
C2185      C2186   1.371   1_455  A
C2186      C2187   1.374       .  A
C2186      H2189   1.083       .  S
C2187      N2471   1.366       .  A
C2191      C2270   1.473       .  S
C2191      N2478   1.355       .  A
C2191      C2192   1.381       .  A
C2192      C2193   1.366       .  A
C2192      H2195   1.079       .  S
C2193      C2194   1.380       .  A
C2193      H2196   1.083       .  S
C2194      N2478   1.365       .  A
O2197      C2212   1.262       .  A
O2197     Al2205   1.886       .  S
C2198      O2496   1.249       .  A
C2198      O2199   1.271       .  A
C2198      C2263   1.473       .  S
O2199     Al2201   1.946       .  S
O2200      C2202   1.270       .  A
O2200     Al2201   1.930       .  S
Al2201     O2209   1.907       .  S
Al2201     O2211   1.951       .  S
Al2201     O2210   1.804       .  S
C2202      O2215   1.255       .  A
C2202      N2219   1.438       .  S
O2203      C2213   1.255       .  A
O2203     Al2205   1.879       .  S
O2204     Al2214   1.915       .  S
Al2205     O2218   1.910       .  S
Al2205     O2215   1.881       .  S
Al2205     O2210   1.741       .  S
O2206     Al2214   1.936       .  S
O2207     Al2214   1.922       .  S
O2208     Al2214   1.873       .  S
O2209      C2216   1.264       .  A
O2210     Al2502   1.796       .  S
O2211      C2212   1.266       .  A
C2212      N2226   1.439       .  S
C2213      O2494   1.259       .  A
C2216      O2495   1.266       .  A
C2217      O2492   1.261       .  A
C2217      O2218   1.259       .  A
N2219      C2223   1.366       .  A
N2219      C2220   1.355       .  A
C2220      C2252   1.481       .  S
C2220      C2221   1.387       .  A
C2221      C2222   1.371       .  A
C2221      H2224   1.079       .  S
C2222      C2223   1.374       .  A
C2222      H2225   1.083       .  S
N2226      C2230   1.365       .  A
N2226      C2227   1.355       .  A
C2227      C2228   1.381       .  A
C2228      C2229   1.366       .  A
C2229      C2230   1.380       .  A
C2229      H2232   1.083       .  S
O2233      C2248   1.262       .  A
O2233     Al2241   1.885       .  S
C2234      O2244   1.249       .  A
C2234      O2235   1.271       .  A
O2235     Al2237   1.946       .  S
O2236      C2238   1.270       .  A
O2236     Al2237   1.930       .  S
Al2237     O2245   1.908       .  S
Al2237     O2247   1.951       .  S
Al2237     O2246   1.803       .  S
C2238      O2251   1.255       .  A
C2238      N2255   1.438       .  S
O2239      C2249   1.255       .  A
O2239     Al2241   1.879       .  S
O2240      C2253   1.261       .  A
O2240     Al2250   1.915       .  S
Al2241     O2254   1.910       .  S
Al2241     O2251   1.881       .  S
Al2241     O2246   1.742       .  S
O2242      C2249   1.259       .  A
O2242     Al2250   1.937       .  S
O2243      C2252   1.266       .  A
O2243     Al2250   1.922       .  S
O2244     Al2250   1.874       .  S
O2245      C2252   1.264       .  A
O2246     Al2250   1.796       .  S
O2247      C2248   1.266       .  A
C2248      N2262   1.439       .  S
C2253      O2254   1.259       .  A
C2256      N2543   1.354       .  A
C2256      C2257   1.387       .  A
C2257      C2258   1.371       .  A
C2258      C2259   1.374       .  A
C2258      H2261   1.083       .  S
C2259      N2543   1.366       .  A
C2263      N2550   1.355       .  A
C2263      C2264   1.381       .  A
C2264      C2265   1.366       .  A
C2264      H2267   1.079       .  S
C2265      C2266   1.380       .  A
C2265      H2268   1.083       .  S
C2266      N2550   1.365       .  A
O2269      C2284   1.262       .  A
O2269     Al2277   1.886       .  S
C2270      O2568   1.249       .  A
C2270      O2271   1.271       .  A
O2271     Al2273   1.946       .  S
O2272      C2274   1.270       .  A
O2272     Al2273   1.930       .  S
Al2273     O2281   1.907       .  S
Al2273     O2283   1.951       .  S
Al2273     O2282   1.804       .  S
C2274      O2287   1.255       .  A
C2274      N2291   1.438       .  S
O2275      C2285   1.255       .  A
O2275     Al2277   1.879       .  S
O2276     Al2286   1.915       .  S
Al2277     O2290   1.910       .  S
Al2277     O2287   1.881       .  S
Al2277     O2282   1.741       .  S
O2278     Al2286   1.936       .  S
O2279     Al2286   1.922       .  S
O2280     Al2286   1.873       .  S
O2281      C2288   1.264       .  A
O2282     Al2574   1.796       .  S
O2283      C2284   1.266       .  A
C2284      N2298   1.439       .  S
C2285      O2566   1.259       .  A
C2288      O2567   1.266       .  A
C2289      O2564   1.261       .  A
C2289      O2290   1.259       .  A
N2291      C2295   1.366       .  A
N2291      C2292   1.355       .  A
C2292      C2293   1.387       .  A
C2293      C2294   1.371       .  A
C2293      H2296   1.079       .  S
C2294      C2295   1.374       .  A
C2294      H2297   1.083       .  S
N2298      C2302   1.365       .  A
N2298      C2299   1.355       .  A
C2299      C2300   1.381       .  A
C2300      C2301   1.366       .  A
C2301      C2302   1.380       .  A
C2301      H2304   1.083       .  S
O2305      C2320   1.262       .  A
O2305     Al2313   1.886       .  S
C2306      O2316   1.249       .  A
C2306      O2307   1.271       .  A
C2306      C3235   1.473       .  S
O2307     Al2309   1.946       .  S
O2308      C2310   1.270       .  A
O2308     Al2309   1.930       .  S
Al2309     O2317   1.907       .  S
Al2309     O2319   1.951       .  S
Al2309     O2318   1.804       .  S
C2310      O2323   1.255       .  A
C2310      N2327   1.438       .  S
O2311      C2321   1.255       .  A
O2311     Al2313   1.879       .  S
O2312      C2325   1.261       .  A
O2312     Al2322   1.915       .  S
Al2313     O2326   1.910       .  S
Al2313     O2323   1.881       .  S
Al2313     O2318   1.741       .  S
O2314      C2321   1.259       .  A
O2314     Al2322   1.936       .  S
O2315      C2324   1.266       .  A
O2315     Al2322   1.922       .  S
O2316     Al2322   1.873       .  S
O2317      C2324   1.264       .  A
O2318     Al2322   1.796       .  S
O2319      C2320   1.266       .  A
C2320      N2334   1.439       .  S
C2321      C2518   1.481       .  S
C2324      C2436   1.480       .  S
C2325      O2326   1.259       .  A
C2325      C2511   1.479       .  S
C2328      C3224   1.481   1_544  S
C2328      C2329   1.387   1_544  A
C2329      C2330   1.371   1_565  A
C2329      H3196   1.079       .  S
C2330      C2331   1.374       .  A
C2330      H2333   1.083       .  S
C2331      C2505   1.479       .  S
H2332      C3193   1.079       .  S
C2335      C2414   1.473       .  S
C2335      C2336   1.381       .  A
C2336      C2337   1.366       .  A
C2336      H2339   1.079       .  S
C2337      C2338   1.380       .  A
C2337      H2340   1.083       .  S
C2338      C2501   1.481       .  S
O2341      C2356   1.262       .  A
O2341     Al2349   1.885       .  S
C2342      O2343   1.271       .  A
C2342      C2407   1.473       .  S
O2343     Al2345   1.946       .  S
O2344      C2346   1.270       .  A
O2344     Al2345   1.930       .  S
Al2345     O2353   1.908       .  S
Al2345     O2355   1.951       .  S
Al2345     O2354   1.803       .  S
C2346      O2359   1.255       .  A
C2346      N2363   1.438       .  S
O2347      C2357   1.255       .  A
O2347     Al2349   1.879       .  S
O2348     Al2358   1.915       .  S
Al2349     O2362   1.910       .  S
Al2349     O2359   1.881       .  S
Al2349     O2354   1.742       .  S
O2350     Al2358   1.937       .  S
O2351     Al2358   1.922       .  S
O2352     Al2358   1.873       .  S
O2353      C2360   1.264       .  A
O2355      C2356   1.266       .  A
C2356      N2370   1.439       .  S
C2357      C2554   1.481       .  S
C2360      C3192   1.481   1_556  S
C2361      O2362   1.259       .  A
C2361      C2547   1.479       .  S
N2363      C2367   1.366       .  A
N2363      C2364   1.354       .  A
C2364      C2396   1.480       .  S
C2364      C2365   1.387       .  A
C2365      C2366   1.371       .  A
C2365      H2368   1.079       .  S
C2366      C2367   1.374       .  A
C2366      H2369   1.083       .  S
C2367      C2541   1.479       .  S
N2370      C2374   1.365       .  A
N2370      C2371   1.355       .  A
C2371      C3170   1.473       .  S
C2371      C2372   1.381       .  A
C2372      C2373   1.366       .  A
C2372      H3239   1.079       .  S
C2373      C2374   1.380       .  A
C2373      H2376   1.083       .  S
C2374      C2537   1.481       .  S
H2375      C3236   1.079       .  S
O2377      C2392   1.262       .  A
O2377     Al2385   1.886       .  S
C2378      O2388   1.249       .  A
C2378      O2379   1.271       .  A
C2378      C3307   1.473       .  S
O2379     Al2381   1.946       .  S
O2380      C2382   1.270       .  A
O2380     Al2381   1.930       .  S
Al2381     O2389   1.907       .  S
Al2381     O2391   1.951       .  S
Al2381     O2390   1.804       .  S
C2382      O2395   1.255       .  A
C2382      N2399   1.438       .  S
O2383      C2393   1.255       .  A
O2383     Al2385   1.879       .  S
O2384      C2397   1.261       .  A
O2384     Al2394   1.915       .  S
Al2385     O2398   1.910       .  S
Al2385     O2395   1.880       .  S
Al2385     O2390   1.741       .  S
O2386      C2393   1.259       .  A
O2386     Al2394   1.936       .  S
O2387      C2396   1.266       .  A
O2387     Al2394   1.922       .  S
O2388     Al2394   1.873       .  S
O2389      C2396   1.264       .  A
O2390     Al2394   1.796       .  S
O2391      C2392   1.266       .  A
C2392      N2406   1.439       .  S
C2393      C2590   1.481       .  S
C2397      O2398   1.259       .  A
C2397      C2583   1.479       .  S
C2400      C3296   1.481   1_554  S
C2400      C2401   1.387   1_554  A
C2401      C2402   1.371       .  A
C2401      H3268   1.079       .  S
C2402      C2403   1.374       .  A
C2402      H2405   1.083       .  S
C2403      C2577   1.479       .  S
H2404      C3265   1.079       .  S
C2407      C2408   1.381       .  A
C2408      C2409   1.366       .  A
C2408      H2411   1.079       .  S
C2409      C2410   1.380       .  A
C2409      H2412   1.083       .  S
C2410      C2573   1.481       .  S
O2413      C2428   1.262       .  A
O2413     Al2421   1.885       .  S
C2414      O2415   1.271       .  A
O2415     Al2417   1.946       .  S
O2416      C2418   1.270       .  A
O2416     Al2417   1.930       .  S
Al2417     O2425   1.908       .  S
Al2417     O2427   1.951       .  S
Al2417     O2426   1.803       .  S
C2418      O2431   1.255       .  A
C2418      N2435   1.438       .  S
O2419      C2429   1.255       .  A
O2419     Al2421   1.879       .  S
O2420     Al2430   1.915       .  S
Al2421     O2434   1.910       .  S
Al2421     O2431   1.881       .  S
Al2421     O2426   1.742       .  S
O2422     Al2430   1.937       .  S
O2423     Al2430   1.922       .  S
O2424     Al2430   1.873       .  S
O2425      C2432   1.264       .  A
O2427      C2428   1.266       .  A
C2428      N2442   1.439       .  S
C2429      C2482   1.481       .  S
C2432      C3264   1.481   1_556  S
C2433      O2434   1.259       .  A
C2433      C2475   1.479       .  S
N2435      C2439   1.366       .  A
N2435      C2436   1.354       .  A
C2436      C2437   1.387       .  A
C2437      C2438   1.371       .  A
C2437      H2440   1.079       .  S
C2438      C2439   1.374       .  A
C2438      H2441   1.083       .  S
C2439      C2469   1.479       .  S
N2442      C2446   1.365       .  A
N2442      C2443   1.355       .  A
C2443      C3242   1.473   1_545  S
C2443      C2444   1.381       .  A
C2444      C2445   1.366       .  A
C2444      H3311   1.079   1_545  S
C2445      C2446   1.380       .  A
C2445      H2448   1.083       .  S
C2446      C2465   1.481       .  S
H2447      C3308   1.079       .  S
O2449      C2464   1.262       .  A
O2449     Al2457   1.885       .  S
C2450      O2460   1.249       .  A
C2450      O2451   1.271       .  A
O2451     Al2453   1.946       .  S
O2452      C2454   1.270       .  A
O2452     Al2453   1.930       .  S
Al2453     O2461   1.908       .  S
Al2453     O2463   1.951       .  S
Al2453     O2462   1.803       .  S
C2454      O2467   1.255       .  A
C2454      N2471   1.438       .  S
O2455      C2465   1.255       .  A
O2455     Al2457   1.879       .  S
O2456      C2469   1.261       .  A
O2456     Al2466   1.915       .  S
Al2457     O2470   1.910       .  S
Al2457     O2467   1.881       .  S
Al2457     O2462   1.742       .  S
O2458      C2465   1.259       .  A
O2458     Al2466   1.937       .  S
O2459      C2468   1.266       .  A
O2459     Al2466   1.922       .  S
O2460     Al2466   1.873       .  S
O2461      C2468   1.264       .  A
O2462     Al2466   1.796       .  S
O2463      C2464   1.266       .  A
C2464      N2478   1.439       .  S
C2468      C2580   1.481       .  S
C2469      O2470   1.259       .  A
C2472      C2473   1.387   1_654  A
C2473      C2474   1.371   1_455  A
C2474      C2475   1.374       .  A
C2474      H2477   1.083       .  S
C2479      C2558   1.473       .  S
C2479      C2480   1.381       .  A
C2480      C2481   1.366       .  A
C2480      H2483   1.079       .  S
C2481      C2482   1.380       .  A
C2481      H2484   1.083       .  S
O2485      C2500   1.262       .  A
O2485     Al2493   1.886       .  S
C2486      O2487   1.271       .  A
C2486      C2551   1.473       .  S
O2487     Al2489   1.946       .  S
O2488      C2490   1.270       .  A
O2488     Al2489   1.930       .  S
Al2489     O2497   1.907       .  S
Al2489     O2499   1.951       .  S
Al2489     O2498   1.804       .  S
C2490      O2503   1.255       .  A
C2490      N2507   1.438       .  S
O2491      C2501   1.255       .  A
O2491     Al2493   1.879       .  S
O2492     Al2502   1.915       .  S
Al2493     O2506   1.910       .  S
Al2493     O2503   1.881       .  S
Al2493     O2498   1.741       .  S
O2494     Al2502   1.936       .  S
O2495     Al2502   1.922       .  S
O2496     Al2502   1.873       .  S
O2497      C2504   1.264       .  A
O2499      C2500   1.266       .  A
C2500      N2514   1.439       .  S
C2505      O2506   1.259       .  A
N2507      C2511   1.366       .  A
N2507      C2508   1.355       .  A
C2508      C2540   1.481       .  S
C2508      C2509   1.387       .  A
C2509      C2510   1.371       .  A
C2509      H2512   1.079       .  S
C2510      C2511   1.374       .  A
C2510      H2513   1.083       .  S
N2514      C2518   1.365       .  A
N2514      C2515   1.355       .  A
C2515      C2516   1.381       .  A
C2516      C2517   1.366       .  A
C2517      C2518   1.380       .  A
C2517      H2520   1.083       .  S
O2521      C2536   1.262       .  A
O2521     Al2529   1.885       .  S
C2522      O2532   1.249       .  A
C2522      O2523   1.271       .  A
O2523     Al2525   1.946       .  S
O2524      C2526   1.270       .  A
O2524     Al2525   1.930       .  S
Al2525     O2533   1.908       .  S
Al2525     O2535   1.951       .  S
Al2525     O2534   1.803       .  S
C2526      O2539   1.255       .  A
C2526      N2543   1.438       .  S
O2527      C2537   1.255       .  A
O2527     Al2529   1.879       .  S
O2528      C2541   1.261       .  A
O2528     Al2538   1.915       .  S
Al2529     O2542   1.910       .  S
Al2529     O2539   1.881       .  S
Al2529     O2534   1.742       .  S
O2530      C2537   1.259       .  A
O2530     Al2538   1.937       .  S
O2531      C2540   1.266       .  A
O2531     Al2538   1.922       .  S
O2532     Al2538   1.874       .  S
O2533      C2540   1.264       .  A
O2534     Al2538   1.796       .  S
O2535      C2536   1.266       .  A
C2536      N2550   1.439       .  S
C2541      O2542   1.259       .  A
C2544      C2545   1.387   1_554  A
C2545      C2546   1.371       .  A
C2546      C2547   1.374       .  A
C2546      H2549   1.083       .  S
C2551      C2552   1.381       .  A
C2552      C2553   1.366       .  A
C2552      H2555   1.079       .  S
C2553      C2554   1.380       .  A
C2553      H2556   1.083       .  S
O2557      C2572   1.262       .  A
O2557     Al2565   1.886       .  S
C2558      O2559   1.271       .  A
O2559     Al2561   1.946       .  S
O2560      C2562   1.270       .  A
O2560     Al2561   1.930       .  S
Al2561     O2569   1.907       .  S
Al2561     O2571   1.951       .  S
Al2561     O2570   1.804       .  S
C2562      O2575   1.255       .  A
C2562      N2579   1.438       .  S
O2563      C2573   1.255       .  A
O2563     Al2565   1.879       .  S
O2564     Al2574   1.915       .  S
Al2565     O2578   1.910       .  S
Al2565     O2575   1.881       .  S
Al2565     O2570   1.741       .  S
O2566     Al2574   1.936       .  S
O2567     Al2574   1.922       .  S
O2568     Al2574   1.873       .  S
O2569      C2576   1.264       .  A
O2571      C2572   1.266       .  A
C2572      N2586   1.439       .  S
C2577      O2578   1.259       .  A
N2579      C2583   1.366       .  A
N2579      C2580   1.355       .  A
C2580      C2581   1.387       .  A
C2581      C2582   1.371       .  A
C2581      H2584   1.079       .  S
C2582      C2583   1.374       .  A
C2582      H2585   1.083       .  S
N2586      C2590   1.365       .  A
N2586      C2587   1.355       .  A
C2587      C2588   1.381       .  A
C2588      C2589   1.366       .  A
C2589      C2590   1.380       .  A
C2589      H2592   1.083       .  S
O2593      C2608   1.262       .  A
O2593     Al2601   1.886       .  S
C2594      O2604   1.249       .  A
C2594      O2595   1.271       .  A
O2595     Al2597   1.946       .  S
O2596      C2598   1.270       .  A
O2596     Al2597   1.930       .  S
Al2597     O2605   1.907       .  S
Al2597     O2607   1.951       .  S
Al2597     O2606   1.804       .  S
C2598      O2611   1.255       .  A
C2598      N2615   1.438       .  S
O2599      C2609   1.255       .  A
O2599     Al2601   1.879       .  S
O2600      C2613   1.261       .  A
O2600     Al2610   1.915       .  S
Al2601     O2614   1.910       .  S
Al2601     O2611   1.881       .  S
Al2601     O2606   1.741       .  S
O2602      C2609   1.259       .  A
O2602     Al2610   1.936       .  S
O2603      C2612   1.266       .  A
O2603     Al2610   1.922       .  S
O2604     Al2610   1.873       .  S
O2605      C2612   1.264       .  A
O2606     Al2610   1.796       .  S
O2607      C2608   1.266       .  A
C2608      N2622   1.439       .  S
C2609      C2806   1.481       .  S
C2612      C2724   1.480       .  S
C2613      O2614   1.259       .  A
C2613      C2799   1.479       .  S
N2615      C3195   1.366   1_554  A
N2615      C3192   1.355       .  A
C2616      N2903   1.355       .  A
C2616      C2617   1.387       .  A
C2617      C2618   1.371       .  A
C2618      C2619   1.374       .  A
C2618      H2621   1.083       .  S
C2619      C2793   1.479       .  S
C2619      N2903   1.366       .  A
N2622      C3202   1.365   1_554  A
N2622      C3199   1.355   1_554  A
C2623      C2702   1.473       .  S
C2623      N2910   1.355       .  A
C2623      C2624   1.381       .  A
C2624      C2625   1.366       .  A
C2624      H2627   1.079       .  S
C2625      C2626   1.380       .  A
C2625      H2628   1.083       .  S
C2626      C2789   1.481       .  S
C2626      N2910   1.365       .  A
O2629      C2644   1.262       .  A
O2629     Al2637   1.885       .  S
C2630      O2928   1.249       .  A
C2630      O2631   1.271       .  A
C2630      C2695   1.473       .  S
O2631     Al2633   1.946       .  S
O2632      C2634   1.270       .  A
O2632     Al2633   1.930       .  S
Al2633     O2641   1.908       .  S
Al2633     O2643   1.951       .  S
Al2633     O2642   1.803       .  S
C2634      O2647   1.255       .  A
C2634      N2651   1.438       .  S
O2635      C2645   1.255       .  A
O2635     Al2637   1.879       .  S
O2636      C3225   1.261   1_554  A
O2636     Al2646   1.915       .  S
Al2637     O2650   1.910       .  S
Al2637     O2647   1.881       .  S
Al2637     O2642   1.742       .  S
O2638      C3221   1.259   1_554  A
O2638     Al2646   1.937       .  S
O2639      C3224   1.266   1_554  A
O2639     Al2646   1.922       .  S
O2640      C3206   1.249   1_554  A
O2640     Al2646   1.873       .  S
O2641      C2648   1.264       .  A
O2642     Al2934   1.796       .  S
O2643      C2644   1.266       .  A
C2644      N2658   1.439       .  S
C2645      O2926   1.259       .  A
C2645      C2842   1.481       .  S
Al2646     O3218   1.796   1_554  S
C2648      O2927   1.266       .  A
C2649      O2924   1.261       .  A
C2649      O2650   1.259       .  A
C2649      C2835   1.479       .  S
N2651      C2655   1.366       .  A
N2651      C2652   1.354       .  A
C2652      C2684   1.480       .  S
C2652      C2653   1.387       .  A
C2653      C2654   1.371       .  A
C2653      H2656   1.079       .  S
C2654      C2655   1.374       .  A
C2654      H2657   1.083       .  S
C2655      C2829   1.479       .  S
N2658      C2662   1.365       .  A
N2658      C2659   1.355   1_565  A
C2659      C2660   1.381       .  A
C2660      C2661   1.366   1_545  A
C2661      C2662   1.380       .  A
C2661      H2664   1.083       .  S
C2662      C2825   1.481       .  S
O2665      C2680   1.262       .  A
O2665     Al2673   1.886       .  S
C2666      O2676   1.249       .  A
C2666      O2667   1.271       .  A
O2667     Al2669   1.946       .  S
O2668      C2670   1.270       .  A
O2668     Al2669   1.930       .  S
Al2669     O2677   1.907       .  S
Al2669     O2679   1.951       .  S
Al2669     O2678   1.804       .  S
C2670      O2683   1.255       .  A
C2670      N2687   1.438       .  S
O2671      C2681   1.255       .  A
O2671     Al2673   1.879       .  S
O2672      C2685   1.261       .  A
O2672     Al2682   1.915       .  S
Al2673     O2686   1.910       .  S
Al2673     O2683   1.880       .  S
Al2673     O2678   1.741       .  S
O2674      C2681   1.259       .  A
O2674     Al2682   1.936       .  S
O2675      C2684   1.266       .  A
O2675     Al2682   1.922       .  S
O2676     Al2682   1.873       .  S
O2677      C2684   1.264       .  A
O2678     Al2682   1.796       .  S
O2679      C2680   1.266       .  A
C2680      N2694   1.439       .  S
C2681      C2878   1.481       .  S
C2685      O2686   1.259       .  A
C2685      C2871   1.479       .  S
N2687      C3267   1.366   1_554  A
N2687      C3264   1.355   1_565  A
C2688      N2975   1.355   1_545  A
C2688      C2689   1.387       .  A
C2689      C2690   1.371   1_545  A
C2690      C2691   1.374       .  A
C2690      H2693   1.083       .  S
C2691      C2865   1.479       .  S
C2691      N2975   1.366       .  A
N2694      C3274   1.365   1_554  A
N2694      C3271   1.355   1_554  A
C2695      N2982   1.355       .  A
C2695      C2696   1.381       .  A
C2696      C2697   1.366       .  A
C2696      H2699   1.079       .  S
C2697      C2698   1.380       .  A
C2697      H2700   1.083       .  S
C2698      C2861   1.481       .  S
C2698      N2982   1.365       .  A
O2701      C2716   1.262       .  A
O2701     Al2709   1.885       .  S
C2702      O3000   1.249       .  A
C2702      O2703   1.271       .  A
O2703     Al2705   1.946       .  S
O2704      C2706   1.270       .  A
O2704     Al2705   1.930       .  S
Al2705     O2713   1.908       .  S
Al2705     O2715   1.951       .  S
Al2705     O2714   1.803       .  S
C2706      O2719   1.255       .  A
C2706      N2723   1.438       .  S
O2707      C2717   1.255       .  A
O2707     Al2709   1.879       .  S
O2708      C3297   1.261   1_554  A
O2708     Al2718   1.915       .  S
Al2709     O2722   1.910       .  S
Al2709     O2719   1.881       .  S
Al2709     O2714   1.742       .  S
O2710      C3293   1.259   1_554  A
O2710     Al2718   1.937       .  S
O2711      C3296   1.266   1_554  A
O2711     Al2718   1.922       .  S
O2712      C3278   1.249   1_554  A
O2712     Al2718   1.873       .  S
O2713      C2720   1.264       .  A
O2714     Al3006   1.796       .  S
O2715      C2716   1.266       .  A
C2716      N2730   1.439       .  S
C2717      O2998   1.259       .  A
C2717      C2770   1.481       .  S
Al2718     O3290   1.796   1_554  S
C2720      O2999   1.266       .  A
C2721      O2996   1.261       .  A
C2721      O2722   1.259       .  A
C2721      C2763   1.479       .  S
N2723      C2727   1.366       .  A
N2723      C2724   1.354       .  A
C2724      C2725   1.387       .  A
C2725      C2726   1.371       .  A
C2725      H2728   1.079       .  S
C2726      C2727   1.374       .  A
C2726      H2729   1.083       .  S
C2727      C2757   1.479       .  S
N2730      C2734   1.365       .  A
N2730      C2731   1.355       .  A
C2731      C2732   1.381       .  A
C2732      C2733   1.366       .  A
C2733      C2734   1.380       .  A
C2733      H2736   1.083       .  S
C2734      C2753   1.481       .  S
O2737      C2752   1.262       .  A
O2737     Al2745   1.885       .  S
C2738      O2748   1.249       .  A
C2738      O2739   1.271       .  A
O2739     Al2741   1.946       .  S
O2740      C2742   1.270       .  A
O2740     Al2741   1.930       .  S
Al2741     O2749   1.908       .  S
Al2741     O2751   1.951       .  S
Al2741     O2750   1.803       .  S
C2742      O2755   1.255       .  A
C2742      N2759   1.438       .  S
O2743      C2753   1.255       .  A
O2743     Al2745   1.879       .  S
O2744      C2757   1.261       .  A
O2744     Al2754   1.915       .  S
Al2745     O2758   1.910       .  S
Al2745     O2755   1.881       .  S
Al2745     O2750   1.742       .  S
O2746      C2753   1.259       .  A
O2746     Al2754   1.937       .  S
O2747      C2756   1.266       .  A
O2747     Al2754   1.922       .  S
O2748     Al2754   1.873       .  S
O2749      C2756   1.264       .  A
O2750     Al2754   1.796       .  S
O2751      C2752   1.266       .  A
C2752      N2766   1.439       .  S
C2756      C2868   1.481       .  S
C2757      O2758   1.259       .  A
N2759      C3339   1.366   1_554  A
N2759      C3336   1.354       .  A
C2760      N3047   1.354       .  A
C2760      C2761   1.387   1_655  A
C2761      C2762   1.371   1_455  A
C2762      C2763   1.374       .  A
C2762      H2765   1.083       .  S
C2763      N3047   1.366       .  A
N2766      C3346   1.365   1_554  A
N2766      C3343   1.355   1_554  A
C2767      C2846   1.473       .  S
C2767      N3054   1.355       .  A
C2767      C2768   1.381       .  A
C2768      C2769   1.366       .  A
C2768      H2771   1.079       .  S
C2769      C2770   1.380       .  A
C2769      H2772   1.083       .  S
C2770      N3054   1.365       .  A
O2773      C2788   1.262       .  A
O2773     Al2781   1.886       .  S
C2774      O3072   1.249       .  A
C2774      O2775   1.271       .  A
C2774      C2839   1.473       .  S
O2775     Al2777   1.946       .  S
O2776      C2778   1.270       .  A
O2776     Al2777   1.930       .  S
Al2777     O2785   1.907       .  S
Al2777     O2787   1.951       .  S
Al2777     O2786   1.804       .  S
C2778      O2791   1.255       .  A
C2778      N2795   1.438       .  S
O2779      C2789   1.255       .  A
O2779     Al2781   1.879       .  S
O2780      C3369   1.261   1_554  A
O2780     Al2790   1.915       .  S
Al2781     O2794   1.910       .  S
Al2781     O2791   1.881       .  S
Al2781     O2786   1.741       .  S
O2782      C3365   1.259   1_554  A
O2782     Al2790   1.936       .  S
O2783      C3368   1.266   1_554  A
O2783     Al2790   1.922       .  S
O2784      C3350   1.249   1_554  A
O2784     Al2790   1.873       .  S
O2785      C2792   1.264       .  A
O2786     Al3078   1.796       .  S
O2787      C2788   1.266       .  A
C2788      N2802   1.439       .  S
C2789      O3070   1.259       .  A
Al2790     O3362   1.796   1_554  S
C2792      O3071   1.266       .  A
C2793      O3068   1.261       .  A
C2793      O2794   1.259       .  A
N2795      C2799   1.366       .  A
N2795      C2796   1.355       .  A
C2796      C2828   1.481       .  S
C2796      C2797   1.387       .  A
C2797      C2798   1.371       .  A
C2797      H2800   1.079       .  S
C2798      C2799   1.374       .  A
C2798      H2801   1.083       .  S
N2802      C2806   1.365       .  A
N2802      C2803   1.355       .  A
C2803      C2804   1.381       .  A
C2804      C2805   1.366       .  A
C2805      C2806   1.380       .  A
C2805      H2808   1.083       .  S
O2809      C2824   1.262       .  A
O2809     Al2817   1.885       .  S
C2810      O2820   1.249       .  A
C2810      O2811   1.271       .  A
O2811     Al2813   1.946       .  S
O2812      C2814   1.270       .  A
O2812     Al2813   1.930       .  S
Al2813     O2821   1.908       .  S
Al2813     O2823   1.951       .  S
Al2813     O2822   1.803       .  S
C2814      O2827   1.255       .  A
C2814      N2831   1.438       .  S
O2815      C2825   1.255       .  A
O2815     Al2817   1.879       .  S
O2816      C2829   1.261       .  A
O2816     Al2826   1.915       .  S
Al2817     O2830   1.910       .  S
Al2817     O2827   1.881       .  S
Al2817     O2822   1.742       .  S
O2818      C2825   1.259       .  A
O2818     Al2826   1.937       .  S
O2819      C2828   1.266       .  A
O2819     Al2826   1.922       .  S
O2820     Al2826   1.873       .  S
O2821      C2828   1.264       .  A
O2822     Al2826   1.796       .  S
O2823      C2824   1.266       .  A
C2824      N2838   1.439       .  S
C2829      O2830   1.259       .  A
N2831      C3411   1.366   1_554  A
N2831      C3408   1.354       .  A
C2832      N3119   1.354       .  A
C2832      C2833   1.387       .  A
C2833      C2834   1.371       .  A
C2834      C2835   1.374       .  A
C2834      H2837   1.083       .  S
C2835      N3119   1.366       .  A
N2838      C3418   1.365   1_554  A
N2838      C3415   1.355   1_554  A
C2839      N3126   1.355       .  A
C2839      C2840   1.381       .  A
C2840      C2841   1.366       .  A
C2840      H2843   1.079       .  S
C2841      C2842   1.380       .  A
C2841      H2844   1.083       .  S
C2842      N3126   1.365       .  A
O2845      C2860   1.262       .  A
O2845     Al2853   1.886       .  S
C2846      O3144   1.249       .  A
C2846      O2847   1.271       .  A
O2847     Al2849   1.946       .  S
O2848      C2850   1.270       .  A
O2848     Al2849   1.930       .  S
Al2849     O2857   1.907       .  S
Al2849     O2859   1.951       .  S
Al2849     O2858   1.804       .  S
C2850      O2863   1.255       .  A
C2850      N2867   1.438       .  S
O2851      C2861   1.255       .  A
O2851     Al2853   1.879       .  S
O2852      C3441   1.261   1_554  A
O2852     Al2862   1.915       .  S
Al2853     O2866   1.910       .  S
Al2853     O2863   1.881       .  S
Al2853     O2858   1.741       .  S
O2854      C3437   1.259   1_554  A
O2854     Al2862   1.936       .  S
O2855      C3440   1.266   1_554  A
O2855     Al2862   1.922       .  S
O2856      C3422   1.249   1_554  A
O2856     Al2862   1.873       .  S
O2857      C2864   1.264       .  A
O2858     Al3150   1.796       .  S
O2859      C2860   1.266       .  A
C2860      N2874   1.439       .  S
C2861      O3142   1.259       .  A
Al2862     O3434   1.796   1_554  S
C2864      O3143   1.266       .  A
C2865      O3140   1.261       .  A
C2865      O2866   1.259       .  A
N2867      C2871   1.366       .  A
N2867      C2868   1.355       .  A
C2868      C2869   1.387       .  A
C2869      C2870   1.371       .  A
C2869      H2872   1.079       .  S
C2870      C2871   1.374       .  A
C2870      H2873   1.083       .  S
N2874      C2878   1.365       .  A
N2874      C2875   1.355       .  A
C2875      C2876   1.381       .  A
C2876      C2877   1.366       .  A
C2877      C2878   1.380       .  A
C2877      H2880   1.083       .  S
O2881      C2896   1.262       .  A
O2881     Al2889   1.886       .  S
C2882      O2892   1.249       .  A
C2882      O2883   1.271       .  A
O2883     Al2885   1.946       .  S
O2884      C2886   1.270       .  A
O2884     Al2885   1.930       .  S
Al2885     O2893   1.907       .  S
Al2885     O2895   1.951       .  S
Al2885     O2894   1.804       .  S
C2886      O2899   1.255       .  A
C2886      N2903   1.438       .  S
O2887      C2897   1.255       .  A
O2887     Al2889   1.879       .  S
O2888      C2901   1.261       .  A
O2888     Al2898   1.915       .  S
Al2889     O2902   1.910       .  S
Al2889     O2899   1.881       .  S
Al2889     O2894   1.741       .  S
O2890      C2897   1.259       .  A
O2890     Al2898   1.936       .  S
O2891      C2900   1.266       .  A
O2891     Al2898   1.922       .  S
O2892     Al2898   1.873       .  S
O2893      C2900   1.264       .  A
O2894     Al2898   1.796       .  S
O2895      C2896   1.266       .  A
C2896      N2910   1.439       .  S
C2897      C3094   1.481       .  S
C2900      C3012   1.480       .  S
C2901      O2902   1.259       .  A
C2901      C3087   1.479       .  S
C2904      N3191   1.355       .  A
C2904      C2905   1.387       .  A
C2905      C2906   1.371       .  A
C2906      C2907   1.374       .  A
C2906      H2909   1.083       .  S
C2907      C3081   1.479       .  S
C2907      N3191   1.366       .  A
C2911      C2990   1.473       .  S
C2911      N3198   1.355       .  A
C2911      C2912   1.381       .  A
C2912      C2913   1.366       .  A
C2912      H2915   1.079       .  S
C2913      C2914   1.380       .  A
C2913      H2916   1.083       .  S
C2914      C3077   1.481       .  S
C2914      N3198   1.365       .  A
O2917      C2932   1.262       .  A
O2917     Al2925   1.885       .  S
C2918      O3216   1.249       .  A
C2918      O2919   1.271       .  A
C2918      C2983   1.473       .  S
O2919     Al2921   1.946       .  S
O2920      C2922   1.270       .  A
O2920     Al2921   1.930       .  S
Al2921     O2929   1.908       .  S
Al2921     O2931   1.951       .  S
Al2921     O2930   1.803       .  S
C2922      O2935   1.255       .  A
C2922      N2939   1.438       .  S
O2923      C2933   1.255       .  A
O2923     Al2925   1.879       .  S
O2924     Al2934   1.915       .  S
Al2925     O2938   1.910       .  S
Al2925     O2935   1.881       .  S
Al2925     O2930   1.742       .  S
O2926     Al2934   1.937       .  S
O2927     Al2934   1.922       .  S
O2928     Al2934   1.873       .  S
O2929      C2936   1.264       .  A
O2930     Al3222   1.796       .  S
O2931      C2932   1.266       .  A
C2932      N2946   1.439       .  S
C2933      O3214   1.259       .  A
C2933      C3130   1.481       .  S
C2936      O3215   1.266       .  A
C2937      O3212   1.261       .  A
C2937      O2938   1.259       .  A
C2937      C3123   1.479       .  S
N2939      C2943   1.366       .  A
N2939      C2940   1.354       .  A
C2940      C2972   1.480       .  S
C2940      C2941   1.387       .  A
C2941      C2942   1.371       .  A
C2941      H2944   1.079       .  S
C2942      C2943   1.374       .  A
C2942      H2945   1.083       .  S
C2943      C3117   1.479       .  S
N2946      C2950   1.365       .  A
N2946      C2947   1.355   1_565  A
C2947      C2948   1.381       .  A
C2948      C2949   1.366   1_545  A
C2949      C2950   1.380       .  A
C2949      H2952   1.083       .  S
C2950      C3113   1.481       .  S
O2953      C2968   1.262       .  A
O2953     Al2961   1.886       .  S
C2954      O2964   1.249       .  A
C2954      O2955   1.271       .  A
O2955     Al2957   1.946       .  S
O2956      C2958   1.270       .  A
O2956     Al2957   1.930       .  S
Al2957     O2965   1.907       .  S
Al2957     O2967   1.951       .  S
Al2957     O2966   1.804       .  S
C2958      O2971   1.255       .  A
C2958      N2975   1.438       .  S
O2959      C2969   1.255       .  A
O2959     Al2961   1.879       .  S
O2960      C2973   1.261       .  A
O2960     Al2970   1.915       .  S
Al2961     O2974   1.910       .  S
Al2961     O2971   1.880       .  S
Al2961     O2966   1.741       .  S
O2962      C2969   1.259       .  A
O2962     Al2970   1.936       .  S
O2963      C2972   1.266       .  A
O2963     Al2970   1.922       .  S
O2964     Al2970   1.873       .  S
O2965      C2972   1.264       .  A
O2966     Al2970   1.796       .  S
O2967      C2968   1.266       .  A
C2968      N2982   1.439       .  S
C2969      C3166   1.481       .  S
C2973      O2974   1.259       .  A
C2973      C3159   1.479       .  S
C2976      N3263   1.355   1_545  A
C2976      C2977   1.387       .  A
C2977      C2978   1.371   1_545  A
C2978      C2979   1.374       .  A
C2978      H2981   1.083       .  S
C2979      C3153   1.479       .  S
C2979      N3263   1.366       .  A
C2983      N3270   1.355       .  A
C2983      C2984   1.381       .  A
C2984      C2985   1.366       .  A
C2984      H2987   1.079       .  S
C2985      C2986   1.380       .  A
C2985      H2988   1.083       .  S
C2986      C3149   1.481       .  S
C2986      N3270   1.365       .  A
O2989      C3004   1.262       .  A
O2989     Al2997   1.885       .  S
C2990      O3288   1.249       .  A
C2990      O2991   1.271       .  A
O2991     Al2993   1.946       .  S
O2992      C2994   1.270       .  A
O2992     Al2993   1.930       .  S
Al2993     O3001   1.908       .  S
Al2993     O3003   1.951       .  S
Al2993     O3002   1.803       .  S
C2994      O3007   1.255       .  A
C2994      N3011   1.438       .  S
O2995      C3005   1.255       .  A
O2995     Al2997   1.879       .  S
O2996     Al3006   1.915       .  S
Al2997     O3010   1.910       .  S
Al2997     O3007   1.881       .  S
Al2997     O3002   1.742       .  S
O2998     Al3006   1.937       .  S
O2999     Al3006   1.922       .  S
O3000     Al3006   1.873       .  S
O3001      C3008   1.264       .  A
O3002     Al3294   1.796       .  S
O3003      C3004   1.266       .  A
C3004      N3018   1.439       .  S
C3005      O3286   1.259       .  A
C3005      C3058   1.481       .  S
C3008      O3287   1.266       .  A
C3009      O3284   1.261       .  A
C3009      O3010   1.259       .  A
C3009      C3051   1.479       .  S
N3011      C3015   1.366       .  A
N3011      C3012   1.354       .  A
C3012      C3013   1.387       .  A
C3013      C3014   1.371       .  A
C3013      H3016   1.079       .  S
C3014      C3015   1.374       .  A
C3014      H3017   1.083       .  S
C3015      C3045   1.479       .  S
N3018      C3022   1.365       .  A
N3018      C3019   1.355       .  A
C3019      C3020   1.381       .  A
C3020      C3021   1.366       .  A
C3021      C3022   1.380       .  A
C3021      H3024   1.083       .  S
C3022      C3041   1.481       .  S
O3025      C3040   1.262       .  A
O3025     Al3033   1.885       .  S
C3026      O3036   1.249       .  A
C3026      O3027   1.271       .  A
O3027     Al3029   1.946       .  S
O3028      C3030   1.270       .  A
O3028     Al3029   1.930       .  S
Al3029     O3037   1.908       .  S
Al3029     O3039   1.951       .  S
Al3029     O3038   1.803       .  S
C3030      O3043   1.255       .  A
C3030      N3047   1.438       .  S
O3031      C3041   1.255       .  A
O3031     Al3033   1.879       .  S
O3032      C3045   1.261       .  A
O3032     Al3042   1.915       .  S
Al3033     O3046   1.910       .  S
Al3033     O3043   1.881       .  S
Al3033     O3038   1.742       .  S
O3034      C3041   1.259       .  A
O3034     Al3042   1.937       .  S
O3035      C3044   1.266       .  A
O3035     Al3042   1.922       .  S
O3036     Al3042   1.873       .  S
O3037      C3044   1.264       .  A
O3038     Al3042   1.796       .  S
O3039      C3040   1.266       .  A
C3040      N3054   1.439       .  S
C3044      C3156   1.481       .  S
C3045      O3046   1.259       .  A
C3048      N3335   1.354       .  A
C3048      C3049   1.387   1_655  A
C3049      C3050   1.371   1_455  A
C3050      C3051   1.374       .  A
C3050      H3053   1.083       .  S
C3051      N3335   1.366       .  A
C3055      C3134   1.473       .  S
C3055      N3342   1.355       .  A
C3055      C3056   1.381       .  A
C3056      C3057   1.366       .  A
C3056      H3059   1.079       .  S
C3057      C3058   1.380       .  A
C3057      H3060   1.083       .  S
C3058      N3342   1.365       .  A
O3061      C3076   1.262       .  A
O3061     Al3069   1.886       .  S
C3062      O3360   1.249       .  A
C3062      O3063   1.271       .  A
C3062      C3127   1.473       .  S
O3063     Al3065   1.946       .  S
O3064      C3066   1.270       .  A
O3064     Al3065   1.930       .  S
Al3065     O3073   1.907       .  S
Al3065     O3075   1.951       .  S
Al3065     O3074   1.804       .  S
C3066      O3079   1.255       .  A
C3066      N3083   1.438       .  S
O3067      C3077   1.255       .  A
O3067     Al3069   1.879       .  S
O3068     Al3078   1.915       .  S
Al3069     O3082   1.910       .  S
Al3069     O3079   1.881       .  S
Al3069     O3074   1.741       .  S
O3070     Al3078   1.936       .  S
O3071     Al3078   1.922       .  S
O3072     Al3078   1.873       .  S
O3073      C3080   1.264       .  A
O3074     Al3366   1.796       .  S
O3075      C3076   1.266       .  A
C3076      N3090   1.439       .  S
C3077      O3358   1.259       .  A
C3080      O3359   1.266       .  A
C3081      O3356   1.261       .  A
C3081      O3082   1.259       .  A
N3083      C3087   1.366       .  A
N3083      C3084   1.355       .  A
C3084      C3116   1.481       .  S
C3084      C3085   1.387       .  A
C3085      C3086   1.371       .  A
C3085      H3088   1.079       .  S
C3086      C3087   1.374       .  A
C3086      H3089   1.083       .  S
N3090      C3094   1.365       .  A
N3090      C3091   1.355       .  A
C3091      C3092   1.381       .  A
C3092      C3093   1.366       .  A
C3093      C3094   1.380       .  A
C3093      H3096   1.083       .  S
O3097      C3112   1.262       .  A
O3097     Al3105   1.885       .  S
C3098      O3108   1.249       .  A
C3098      O3099   1.271       .  A
O3099     Al3101   1.946       .  S
O3100      C3102   1.270       .  A
O3100     Al3101   1.930       .  S
Al3101     O3109   1.908       .  S
Al3101     O3111   1.951       .  S
Al3101     O3110   1.803       .  S
C3102      O3115   1.255       .  A
C3102      N3119   1.438       .  S
O3103      C3113   1.255       .  A
O3103     Al3105   1.879       .  S
O3104      C3117   1.261       .  A
O3104     Al3114   1.915       .  S
Al3105     O3118   1.910       .  S
Al3105     O3115   1.881       .  S
Al3105     O3110   1.742       .  S
O3106      C3113   1.259       .  A
O3106     Al3114   1.937       .  S
O3107      C3116   1.266       .  A
O3107     Al3114   1.922       .  S
O3108     Al3114   1.874       .  S
O3109      C3116   1.264       .  A
O3110     Al3114   1.796       .  S
O3111      C3112   1.266       .  A
C3112      N3126   1.439       .  S
C3117      O3118   1.259       .  A
C3120      N3407   1.354       .  A
C3120      C3121   1.387       .  A
C3121      C3122   1.371       .  A
C3122      C3123   1.374       .  A
C3122      H3125   1.083       .  S
C3123      N3407   1.366       .  A
C3127      N3414   1.355       .  A
C3127      C3128   1.381       .  A
C3128      C3129   1.366       .  A
C3128      H3131   1.079       .  S
C3129      C3130   1.380       .  A
C3129      H3132   1.083       .  S
C3130      N3414   1.365       .  A
O3133      C3148   1.262       .  A
O3133     Al3141   1.886       .  S
C3134      O3432   1.249       .  A
C3134      O3135   1.271       .  A
O3135     Al3137   1.946       .  S
O3136      C3138   1.270       .  A
O3136     Al3137   1.930       .  S
Al3137     O3145   1.907       .  S
Al3137     O3147   1.951       .  S
Al3137     O3146   1.804       .  S
C3138      O3151   1.255       .  A
C3138      N3155   1.438       .  S
O3139      C3149   1.255       .  A
O3139     Al3141   1.879       .  S
O3140     Al3150   1.915       .  S
Al3141     O3154   1.910       .  S
Al3141     O3151   1.881       .  S
Al3141     O3146   1.741       .  S
O3142     Al3150   1.936       .  S
O3143     Al3150   1.922       .  S
O3144     Al3150   1.873       .  S
O3145      C3152   1.264       .  A
O3146     Al3438   1.796       .  S
O3147      C3148   1.266       .  A
C3148      N3162   1.439       .  S
C3149      O3430   1.259       .  A
C3152      O3431   1.266       .  A
C3153      O3428   1.261       .  A
C3153      O3154   1.259       .  A
N3155      C3159   1.366       .  A
N3155      C3156   1.355       .  A
C3156      C3157   1.387       .  A
C3157      C3158   1.371       .  A
C3157      H3160   1.079       .  S
C3158      C3159   1.374       .  A
C3158      H3161   1.083       .  S
N3162      C3166   1.365       .  A
N3162      C3163   1.355       .  A
C3163      C3164   1.381       .  A
C3164      C3165   1.366       .  A
C3165      C3166   1.380       .  A
C3165      H3168   1.083       .  S
O3169      C3184   1.262       .  A
O3169     Al3177   1.886       .  S
C3170      O3180   1.249       .  A
C3170      O3171   1.271       .  A
O3171     Al3173   1.946       .  S
O3172      C3174   1.270       .  A
O3172     Al3173   1.930       .  S
Al3173     O3181   1.907       .  S
Al3173     O3183   1.951       .  S
Al3173     O3182   1.804       .  S
C3174      O3187   1.255       .  A
C3174      N3191   1.438       .  S
O3175      C3185   1.255       .  A
O3175     Al3177   1.879       .  S
O3176      C3189   1.261       .  A
O3176     Al3186   1.915       .  S
Al3177     O3190   1.910       .  S
Al3177     O3187   1.881       .  S
Al3177     O3182   1.741       .  S
O3178      C3185   1.259       .  A
O3178     Al3186   1.936       .  S
O3179      C3188   1.266       .  A
O3179     Al3186   1.922       .  S
O3180     Al3186   1.873       .  S
O3181      C3188   1.264       .  A
O3182     Al3186   1.796       .  S
O3183      C3184   1.266       .  A
C3184      N3198   1.439       .  S
C3185      C3382   1.481       .  S
C3188      C3300   1.480       .  S
C3189      O3190   1.259       .  A
C3189      C3375   1.479       .  S
C3192      C3193   1.387   1_554  A
C3193      C3194   1.371       .  A
C3194      C3195   1.374       .  A
C3194      H3197   1.083       .  S
C3195      C3369   1.479       .  S
C3199      C3278   1.473       .  S
C3199      C3200   1.381       .  A
C3200      C3201   1.366       .  A
C3200      H3203   1.079       .  S
C3201      C3202   1.380       .  A
C3201      H3204   1.083       .  S
C3202      C3365   1.481       .  S
O3205      C3220   1.262       .  A
O3205     Al3213   1.885       .  S
C3206      O3207   1.271       .  A
C3206      C3271   1.473       .  S
O3207     Al3209   1.946       .  S
O3208      C3210   1.270       .  A
O3208     Al3209   1.930       .  S
Al3209     O3217   1.908       .  S
Al3209     O3219   1.951       .  S
Al3209     O3218   1.803       .  S
C3210      O3223   1.255       .  A
C3210      N3227   1.438       .  S
O3211      C3221   1.255       .  A
O3211     Al3213   1.879       .  S
O3212     Al3222   1.915       .  S
Al3213     O3226   1.910       .  S
Al3213     O3223   1.881       .  S
Al3213     O3218   1.742       .  S
O3214     Al3222   1.937       .  S
O3215     Al3222   1.922       .  S
O3216     Al3222   1.873       .  S
O3217      C3224   1.264       .  A
O3219      C3220   1.266       .  A
C3220      N3234   1.439       .  S
C3221      C3418   1.481       .  S
C3225      O3226   1.259       .  A
C3225      C3411   1.479       .  S
N3227      C3231   1.366       .  A
N3227      C3228   1.354       .  A
C3228      C3260   1.480       .  S
C3228      C3229   1.387       .  A
C3229      C3230   1.371       .  A
C3229      H3232   1.079       .  S
C3230      C3231   1.374       .  A
C3230      H3233   1.083       .  S
C3231      C3405   1.479       .  S
N3234      C3238   1.365       .  A
N3234      C3235   1.355   1_565  A
C3235      C3236   1.381       .  A
C3236      C3237   1.366   1_545  A
C3237      C3238   1.380       .  A
C3237      H3240   1.083       .  S
C3238      C3401   1.481       .  S
O3241      C3256   1.262       .  A
O3241     Al3249   1.886       .  S
C3242      O3252   1.249       .  A
C3242      O3243   1.271       .  A
O3243     Al3245   1.946       .  S
O3244      C3246   1.270       .  A
O3244     Al3245   1.930       .  S
Al3245     O3253   1.907       .  S
Al3245     O3255   1.951       .  S
Al3245     O3254   1.804       .  S
C3246      O3259   1.255       .  A
C3246      N3263   1.438       .  S
O3247      C3257   1.255       .  A
O3247     Al3249   1.879       .  S
O3248      C3261   1.261       .  A
O3248     Al3258   1.915       .  S
Al3249     O3262   1.910       .  S
Al3249     O3259   1.880       .  S
Al3249     O3254   1.741       .  S
O3250      C3257   1.259       .  A
O3250     Al3258   1.936       .  S
O3251      C3260   1.266       .  A
O3251     Al3258   1.922       .  S
O3252     Al3258   1.873       .  S
O3253      C3260   1.264       .  A
O3254     Al3258   1.796       .  S
O3255      C3256   1.266       .  A
C3256      N3270   1.439       .  S
C3257      C3454   1.481       .  S
C3261      O3262   1.259       .  A
C3261      C3447   1.479       .  S
C3264      C3265   1.387   1_554  A
C3265      C3266   1.371   1_545  A
C3266      C3267   1.374       .  A
C3266      H3269   1.083       .  S
C3267      C3441   1.479       .  S
C3271      C3272   1.381       .  A
C3272      C3273   1.366       .  A
C3272      H3275   1.079       .  S
C3273      C3274   1.380       .  A
C3273      H3276   1.083       .  S
C3274      C3437   1.481       .  S
O3277      C3292   1.262       .  A
O3277     Al3285   1.885       .  S
C3278      O3279   1.271       .  A
O3279     Al3281   1.946       .  S
O3280      C3282   1.270       .  A
O3280     Al3281   1.930       .  S
Al3281     O3289   1.908       .  S
Al3281     O3291   1.951       .  S
Al3281     O3290   1.803       .  S
C3282      O3295   1.255       .  A
C3282      N3299   1.438       .  S
O3283      C3293   1.255       .  A
O3283     Al3285   1.879       .  S
O3284     Al3294   1.915       .  S
Al3285     O3298   1.910       .  S
Al3285     O3295   1.881       .  S
Al3285     O3290   1.742       .  S
O3286     Al3294   1.937       .  S
O3287     Al3294   1.922       .  S
O3288     Al3294   1.873       .  S
O3289      C3296   1.264       .  A
O3291      C3292   1.266       .  A
C3292      N3306   1.439       .  S
C3293      C3346   1.481       .  S
C3297      O3298   1.259       .  A
C3297      C3339   1.479       .  S
N3299      C3303   1.366       .  A
N3299      C3300   1.354       .  A
C3300      C3301   1.387       .  A
C3301      C3302   1.371       .  A
C3301      H3304   1.079       .  S
C3302      C3303   1.374       .  A
C3302      H3305   1.083       .  S
C3303      C3333   1.479       .  S
N3306      C3310   1.365       .  A
N3306      C3307   1.355       .  A
C3307      C3308   1.381       .  A
C3308      C3309   1.366       .  A
C3309      C3310   1.380       .  A
C3309      H3312   1.083       .  S
C3310      C3329   1.481       .  S
O3313      C3328   1.262       .  A
O3313     Al3321   1.885       .  S
C3314      O3324   1.249       .  A
C3314      O3315   1.271       .  A
O3315     Al3317   1.946       .  S
O3316      C3318   1.270       .  A
O3316     Al3317   1.930       .  S
Al3317     O3325   1.908       .  S
Al3317     O3327   1.951       .  S
Al3317     O3326   1.803       .  S
C3318      O3331   1.255       .  A
C3318      N3335   1.438       .  S
O3319      C3329   1.255       .  A
O3319     Al3321   1.879       .  S
O3320      C3333   1.261       .  A
O3320     Al3330   1.915       .  S
Al3321     O3334   1.910       .  S
Al3321     O3331   1.881       .  S
Al3321     O3326   1.742       .  S
O3322      C3329   1.259       .  A
O3322     Al3330   1.937       .  S
O3323      C3332   1.266       .  A
O3323     Al3330   1.922       .  S
O3324     Al3330   1.873       .  S
O3325      C3332   1.264       .  A
O3326     Al3330   1.796       .  S
O3327      C3328   1.266       .  A
C3328      N3342   1.439       .  S
C3332      C3444   1.481       .  S
C3333      O3334   1.259       .  A
C3336      C3337   1.387   1_654  A
C3337      C3338   1.371   1_455  A
C3338      C3339   1.374       .  A
C3338      H3341   1.083       .  S
C3343      C3422   1.473       .  S
C3343      C3344   1.381       .  A
C3344      C3345   1.366       .  A
C3344      H3347   1.079       .  S
C3345      C3346   1.380       .  A
C3345      H3348   1.083       .  S
O3349      C3364   1.262       .  A
O3349     Al3357   1.886       .  S
C3350      O3351   1.271       .  A
C3350      C3415   1.473       .  S
O3351     Al3353   1.946       .  S
O3352      C3354   1.270       .  A
O3352     Al3353   1.930       .  S
Al3353     O3361   1.907       .  S
Al3353     O3363   1.951       .  S
Al3353     O3362   1.804       .  S
C3354      O3367   1.255       .  A
C3354      N3371   1.438       .  S
O3355      C3365   1.255       .  A
O3355     Al3357   1.879       .  S
O3356     Al3366   1.915       .  S
Al3357     O3370   1.910       .  S
Al3357     O3367   1.881       .  S
Al3357     O3362   1.741       .  S
O3358     Al3366   1.936       .  S
O3359     Al3366   1.922       .  S
O3360     Al3366   1.873       .  S
O3361      C3368   1.264       .  A
O3363      C3364   1.266       .  A
C3364      N3378   1.439       .  S
C3369      O3370   1.259       .  A
N3371      C3375   1.366       .  A
N3371      C3372   1.355       .  A
C3372      C3404   1.481       .  S
C3372      C3373   1.387       .  A
C3373      C3374   1.371       .  A
C3373      H3376   1.079       .  S
C3374      C3375   1.374       .  A
C3374      H3377   1.083       .  S
N3378      C3382   1.365       .  A
N3378      C3379   1.355       .  A
C3379      C3380   1.381       .  A
C3380      C3381   1.366       .  A
C3381      C3382   1.380       .  A
C3381      H3384   1.083       .  S
O3385      C3400   1.262       .  A
O3385     Al3393   1.885       .  S
C3386      O3396   1.249       .  A
C3386      O3387   1.271       .  A
O3387     Al3389   1.946       .  S
O3388      C3390   1.270       .  A
O3388     Al3389   1.930       .  S
Al3389     O3397   1.908       .  S
Al3389     O3399   1.951       .  S
Al3389     O3398   1.803       .  S
C3390      O3403   1.255       .  A
C3390      N3407   1.438       .  S
O3391      C3401   1.255       .  A
O3391     Al3393   1.879       .  S
O3392      C3405   1.261       .  A
O3392     Al3402   1.915       .  S
Al3393     O3406   1.910       .  S
Al3393     O3403   1.881       .  S
Al3393     O3398   1.742       .  S
O3394      C3401   1.259       .  A
O3394     Al3402   1.937       .  S
O3395      C3404   1.266       .  A
O3395     Al3402   1.922       .  S
O3396     Al3402   1.874       .  S
O3397      C3404   1.264       .  A
O3398     Al3402   1.796       .  S
O3399      C3400   1.266       .  A
C3400      N3414   1.439       .  S
C3405      O3406   1.259       .  A
C3408      C3409   1.387   1_554  A
C3409      C3410   1.371       .  A
C3410      C3411   1.374       .  A
C3410      H3413   1.083       .  S
C3415      C3416   1.381       .  A
C3416      C3417   1.366       .  A
C3416      H3419   1.079       .  S
C3417      C3418   1.380       .  A
C3417      H3420   1.083       .  S
O3421      C3436   1.262       .  A
O3421     Al3429   1.886       .  S
C3422      O3423   1.271       .  A
O3423     Al3425   1.946       .  S
O3424      C3426   1.270       .  A
O3424     Al3425   1.930       .  S
Al3425     O3433   1.907       .  S
Al3425     O3435   1.951       .  S
Al3425     O3434   1.804       .  S
C3426      O3439   1.255       .  A
C3426      N3443   1.438       .  S
O3427      C3437   1.255       .  A
O3427     Al3429   1.879       .  S
O3428     Al3438   1.915       .  S
Al3429     O3442   1.910       .  S
Al3429     O3439   1.881       .  S
Al3429     O3434   1.741       .  S
O3430     Al3438   1.936       .  S
O3431     Al3438   1.922       .  S
O3432     Al3438   1.873       .  S
O3433      C3440   1.264       .  A
O3435      C3436   1.266       .  A
C3436      N3450   1.439       .  S
C3441      O3442   1.259       .  A
N3443      C3447   1.366       .  A
N3443      C3444   1.355       .  A
C3444      C3445   1.387       .  A
C3445      C3446   1.371       .  A
C3445      H3448   1.079       .  S
C3446      C3447   1.374       .  A
C3446      H3449   1.083       .  S
N3450      C3454   1.365       .  A
N3450      C3451   1.355       .  A
C3451      C3452   1.381       .  A
C3452      C3453   1.366       .  A
C3453      C3454   1.380       .  A
C3453      H3456   1.083       .  S
