geometry optimzed in LAMMPS
_audit_creation_date              2020-11-30 
_audit_creation_method            'lammps2cif' 
_symmetry_space_group_name_H-M    'P1' 
_symmetry_Int_Tables_number       1 
_symmetry_cell_setting            triclinic 
loop_ 
_symmetry_equiv_pos_as_xyz 
  x,y,z 
_cell_length_a                    42.62971974 
_cell_length_b                    42.454248343177795 
_cell_length_c                    41.98332278144124 
_cell_angle_alpha                 90.04047555689311 
_cell_angle_beta                  90.00598761745849 
_cell_angle_gamma                 89.93301543727425 
loop_ 
_atom_site_label 
_atom_site_type_symbol 
_atom_site_fract_x 
_atom_site_fract_y 
_atom_site_fract_z 
_atom_site_charge 
N1          N  0.45274775  0.26916057  0.00156505    -0.35900
N2          N  0.50172053  0.26842859  0.04937508    -0.56500
N3          N  0.55045717  0.26528395  0.00072674    -0.35900
N4          N  0.50139467  0.26996173  0.95300151    -0.56500
C5          C  0.43624358  0.27766425  0.02769493     0.27700
C6          C  0.43613739  0.27876386  0.97591650     0.27700
C7          C  0.56754822  0.27337684  0.02660137     0.27700
C8          C  0.56738980  0.27347005  0.97476826     0.27700
C9          C  0.47641511  0.26454450  0.06832608     0.36300
C10         C  0.52707684  0.26324286  0.06791670     0.36300
C11         C  0.47578727  0.26683507  0.93435477     0.36300
C12         C  0.52634019  0.26457483  0.93394509     0.36300
C13         C  0.40855159  0.29227599  0.01853511    -0.21200
C14         C  0.40848951  0.29296689  0.98581109    -0.21200
C15         C  0.59594949  0.28614648  0.01693964    -0.21200
C16         C  0.59587108  0.28613346  0.98422599    -0.21200
C17         C  0.48570983  0.25623746  0.09882477    -0.22300
C18         C  0.51785149  0.25547035  0.09857994    -0.22300
C19         C  0.48446244  0.25897738  0.90354020    -0.22300
C20         C  0.51654403  0.25755717  0.90327957    -0.22300
C21         C  0.44546071  0.27235684  0.05952283    -0.17600
C22         C  0.44504305  0.27444911  0.94384960    -0.17600
C23         C  0.55771472  0.26991582  0.94281116    -0.17600
C24         C  0.55823407  0.26940767  0.05864967    -0.17600
H25         H  0.39045080  0.30188866  0.03379219     0.15300
H26         H  0.39032559  0.30316392  0.97103605     0.15300
H27         H  0.61460370  0.29520304  0.03181339     0.15300
H28         H  0.61441333  0.29515823  0.96919692     0.15300
H29         H  0.47091141  0.25220433  0.11936572     0.13600
H30         H  0.53276352  0.25073069  0.11889300     0.13600
H31         H  0.46929446  0.25550977  0.88316429     0.13600
H32         H  0.53105787  0.25285285  0.88266052     0.13600
H33         H  0.47288754  0.25529523  0.00118573     0.26800
H34         H  0.52940369  0.25287342  0.00076938     0.26800
N35         N  0.18925405  0.55090237  0.99853278    -0.35900
N36         N  0.17911044  0.59743883  0.04834660    -0.56500
N37         N  0.18049652  0.64522171  0.99902080    -0.35900
N38         N  0.18653910  0.59811698  0.94947652    -0.56500
C39         C  0.17913045  0.53367834  0.02347222     0.27700
C40         C  0.18356126  0.53409145  0.97188248     0.27700
C41         C  0.16848263  0.66050952  0.02445407     0.27700
C42         C  0.17076029  0.66051040  0.97262736     0.27700
C43         C  0.19157714  0.57271589  0.06415533     0.36300
C44         C  0.18803232  0.62358627  0.06427669     0.36300
C45         C  0.20109449  0.57417463  0.93441761     0.36300
C46         C  0.19543232  0.62468482  0.93452334     0.36300
C47         C  0.16546486  0.50609877  0.01249036    -0.21200
C48         C  0.16827762  0.50635843  0.97975455    -0.21200
C49         C  0.14973898  0.68519518  0.01413117    -0.21200
C50         C  0.15113348  0.68515876  0.98125877    -0.21200
C51         C  0.20916456  0.58315207  0.08979320    -0.22300
C52         C  0.20711329  0.61547605  0.08973783    -0.22300
C53         C  0.22001051  0.58552994  0.91019758    -0.22300
C54         C  0.21650346  0.61772259  0.91033255    -0.22300
C55         C  0.18630821  0.54107909  0.05540609    -0.17600
C56         C  0.19522878  0.54238696  0.94162706    -0.17600
C57         C  0.18273521  0.65445578  0.94187364    -0.17600
C58         C  0.17760891  0.65415297  0.05614873    -0.17600
H59         H  0.15531469  0.48737482  0.02658066     0.15300
H60         H  0.16059253  0.48793795  0.96373749     0.15300
H61         H  0.13692688  0.70184966  0.02869339     0.15300
H62         H  0.13970514  0.70185416  0.96561130     0.15300
H63         H  0.22292825  0.56913935  0.10616000     0.13600
H64         H  0.21912137  0.63107862  0.10604339     0.13600
H65         H  0.23501206  0.57217139  0.89437813     0.13600
H66         H  0.22847241  0.63400136  0.89470676     0.13600
H67         H  0.20347204  0.57084743  0.99998011     0.26800
H68         H  0.19805006  0.62809142  0.99986320     0.26800
N69         N  0.44912281  0.92563096  0.00695918    -0.35900
N70         N  0.49806854  0.92612037  0.05452637    -0.56500
N71         N  0.54662938  0.92583754  0.00568713    -0.35900
N72         N  0.49768403  0.92240184  0.95831585    -0.56500
C73         C  0.43287242  0.91716964  0.03327645     0.27700
C74         C  0.43272113  0.91515249  0.98149260     0.27700
C75         C  0.56287756  0.91678813  0.03179522     0.27700
C76         C  0.56258701  0.91509438  0.97998078     0.27700
C77         C  0.47294071  0.93146116  0.07336634     0.36300
C78         C  0.52363268  0.93168862  0.07262256     0.36300
C79         C  0.47209830  0.92731725  0.94008474     0.36300
C80         C  0.52272753  0.92776417  0.93942397     0.36300
C81         C  0.40568930  0.90153121  0.02437131    -0.21200
C82         C  0.40557061  0.90032148  0.99167173    -0.21200
C83         C  0.58950829  0.90032608  0.02258530    -0.21200
C84         C  0.58929212  0.89921559  0.98987604    -0.21200
C85         C  0.48255382  0.94125293  0.10331373    -0.22300
C86         C  0.51473674  0.94142261  0.10283614    -0.22300
C87         C  0.48082727  0.93665456  0.90974465    -0.22300
C88         C  0.51300292  0.93715208  0.90938055    -0.22300
C89         C  0.44191007  0.92350439  0.06501518    -0.17600
C90         C  0.44144514  0.91924304  0.94935161    -0.17600
C91         C  0.55372110  0.91986638  0.94792014    -0.17600
C92         C  0.55440878  0.92345343  0.06361682    -0.17600
H93         H  0.38800111  0.89143791  0.03975156     0.15300
H94         H  0.38773904  0.88928154  0.97712243     0.15300
H95         H  0.60702037  0.88962671  0.03779291     0.15300
H96         H  0.60656533  0.88746884  0.97517790     0.15300
H97         H  0.46795052  0.94663197  0.12369395     0.13600
H98         H  0.52984867  0.94686218  0.12281061     0.13600
H99         H  0.46560909  0.94162394  0.88972624     0.13600
H100        H  0.52752130  0.94269383  0.88900626     0.13600
H101        H  0.46891949  0.93989452  0.00628296     0.26800
H102        H  0.52723060  0.94067185  0.00539425     0.26800
N103        N  0.82495751  0.54618028  0.99730078    -0.35900
N104        N  0.82325162  0.59455097  0.94857815    -0.56500
N105        N  0.82489541  0.64400195  0.99640492    -0.35900
N106        N  0.82320785  0.59567868  0.04504735    -0.56500
C107        C  0.81600035  0.52918581  0.97163836     0.27700
C108        C  0.81607559  0.52983557  0.02338941     0.27700
C109        C  0.81609899  0.66044964  0.97032471     0.27700
C110        C  0.81594665  0.66100484  0.02211344     0.27700
C111        C  0.82780601  0.56889499  0.93010938     0.36300
C112        C  0.82778238  0.61980214  0.92958657     0.36300
C113        C  0.82814286  0.57044363  0.06392445     0.36300
C114        C  0.82793623  0.62127480  0.06350753     0.36300
C115        C  0.80162128  0.50156815  0.98154265    -0.21200
C116        C  0.80171469  0.50196167  0.01425100    -0.21200
C117        C  0.80185313  0.68839454  0.97954238    -0.21200
C118        C  0.80169824  0.68871378  0.01225090    -0.21200
C119        C  0.83582013  0.57787427  0.89943251    -0.22300
C120        C  0.83574525  0.61018855  0.89909197    -0.22300
C121        C  0.83659040  0.57999791  0.09430352    -0.22300
C122        C  0.83649524  0.61227819  0.09403280    -0.22300
C123        C  0.82096833  0.53780779  0.93958756    -0.17600
C124        C  0.82111526  0.53924069  0.05517620    -0.17600
C125        C  0.82082291  0.65231978  0.05417852    -0.17600
C126        C  0.82100574  0.65109509  0.93846092    -0.17600
H127        H  0.79163652  0.48321032  0.96681754     0.15300
H128        H  0.79189710  0.48395766  0.02951238     0.15300
H129        H  0.79211332  0.70650027  0.96432637     0.15300
H130        H  0.79176459  0.70709376  0.02700705     0.15300
H131        H  0.84024880  0.56272803  0.87917255     0.13600
H132        H  0.84008623  0.62492110  0.87853349     0.13600
H133        H  0.84134633  0.56525007  0.11476603     0.13600
H134        H  0.84122229  0.62738214  0.11424586     0.13600
H135        H  0.83868661  0.56644284  0.99705365     0.26800
H136        H  0.83855014  0.62365837  0.99661536     0.26800
N137        N  0.33159362  0.04537276  0.49818573    -0.35900
N138        N  0.32928111  0.09389199  0.54669504    -0.56500
N139        N  0.33267171  0.14346870  0.49952007    -0.35900
N140        N  0.33211141  0.09497449  0.45079301    -0.56500
C141        C  0.32096289  0.02887733  0.52348802     0.27700
C142        C  0.32318757  0.02927401  0.47179003     0.27700
C143        C  0.32305643  0.15966485  0.52549745     0.27700
C144        C  0.32385306  0.16030427  0.47370439     0.27700
C145        C  0.33362827  0.06815336  0.56496745     0.36300
C146        C  0.33472627  0.11890126  0.56572132     0.36300
C147        C  0.33723857  0.06975417  0.43187101     0.36300
C148        C  0.33694303  0.12064278  0.43246869     0.36300
C149        C  0.30595806  0.00178169  0.51309956    -0.21200
C150        C  0.30744113  0.00198466  0.48038879    -0.21200
C151        C  0.30844625  0.18734241  0.51615436    -0.21200
C152        C  0.30889441  0.18772636  0.48341706    -0.21200
C153        C  0.34263911  0.07679913  0.59547331    -0.22300
C154        C  0.34328619  0.10906260  0.59595955    -0.22300
C155        C  0.34597508  0.07940472  0.40162586    -0.22300
C156        C  0.34577990  0.11171194  0.40200299    -0.22300
C157        C  0.32527206  0.03748598  0.55561667    -0.17600
C158        C  0.32970868  0.03855981  0.44024902    -0.17600
C159        C  0.32937681  0.15164567  0.44170702    -0.17600
C160        C  0.32749783  0.15010957  0.55733656    -0.17600
H161        H  0.29476207  0.98389767  0.52749230     0.15300
H162        H  0.29756863  0.98429946  0.46476097     0.15300
H163        H  0.29805427  0.20517175  0.53128310     0.15300
H164        H  0.29884776  0.20592611  0.46853595     0.15300
H165        H  0.34713972  0.06148977  0.61556995     0.13600
H166        H  0.34830542  0.12363411  0.61649854     0.13600
H167        H  0.35073732  0.06469334  0.38111617     0.13600
H168        H  0.35045256  0.12689235  0.38185773     0.13600
H169        H  0.34604366  0.06512437  0.49894455     0.26800
H170        H  0.34664150  0.12332675  0.49948785     0.26800
N171        N  0.94768478  0.76784329  0.50339845    -0.35900
N172        N  0.99634102  0.76714415  0.45482498    -0.56500
N173        N  0.04523833  0.77419684  0.50225295    -0.35900
N174        N  0.99688390  0.77845952  0.55048577    -0.56500
C175        C  0.93095368  0.77491057  0.47695544     0.27700
C176        C  0.93122082  0.77882062  0.52862081     0.27700
C177        C  0.06147714  0.78012405  0.47526067     0.27700
C178        C  0.06155197  0.78709713  0.52664378     0.27700
C179        C  0.97099428  0.76016211  0.43687292     0.36300
C180        C  0.02169280  0.76159169  0.43635279     0.36300
C181        C  0.97225563  0.77215150  0.56964422     0.36300
C182        C  0.02266420  0.77723575  0.56916391     0.36300
C183        C  0.90342351  0.79017931  0.48557339    -0.21200
C184        C  0.90355076  0.79253930  0.51817878    -0.21200
C185        C  0.08863071  0.79659441  0.48266034    -0.21200
C186        C  0.08868274  0.80095368  0.51510906    -0.21200
C187        C  0.98025489  0.74944585  0.40713321    -0.22300
C188        C  0.01242893  0.75028372  0.40682177    -0.22300
C189        C  0.98253299  0.76606180  0.60037164    -0.22300
C190        C  0.01450070  0.76958514  0.60012125    -0.22300
C191        C  0.93994407  0.76789228  0.44534038    -0.17600
C192        C  0.94069644  0.77677695  0.56075607    -0.17600
C193        C  0.05301516  0.78568249  0.55909611    -0.12000
C194        C  0.05254392  0.77071428  0.44425142    -0.17600
H195        H  0.88539785  0.79949478  0.47007589     0.15300
H196        H  0.88570081  0.80398393  0.53240293     0.15300
H197        H  0.10641808  0.80503969  0.46640275     0.15300
H198        H  0.10654747  0.81319502  0.52859862     0.15300
H199        H  0.96533917  0.74291942  0.38733606     0.13600
H200        H  0.02725107  0.74450850  0.38671240     0.13600
H201        H  0.96837114  0.76074010  0.62106698     0.13600
H202        H  0.02990680  0.76728872  0.62047949     0.13600
H203        H  0.96814257  0.75443087  0.50443041     0.26800
H204        H  0.02561704  0.75976850  0.50419665     0.26800
N205        N  0.66995172  0.04820286  0.49549132    -0.35900
N206        N  0.67214054  0.09751409  0.54323976    -0.56500
N207        N  0.66478377  0.14639683  0.49493054    -0.35900
N208        N  0.66591037  0.09703137  0.44718737    -0.56500
C209        C  0.68069630  0.03193763  0.52100120     0.27700
C210        C  0.67829981  0.03182552  0.46914216     0.27700
C211        C  0.67454913  0.16343028  0.52025472     0.27700
C212        C  0.67214109  0.16308585  0.46855109     0.27700
C213        C  0.66938624  0.07204673  0.56233139     0.36300
C214        C  0.66647391  0.12286283  0.56183258     0.36300
C215        C  0.66244610  0.07135203  0.42857980     0.36300
C216        C  0.65975428  0.12212128  0.42847794     0.36300
C217        C  0.69540689  0.00460274  0.51078325    -0.21200
C218        C  0.69392529  0.00453955  0.47807613    -0.21200
C219        C  0.68765591  0.19151256  0.50991370    -0.21200
C220        C  0.68611029  0.19130716  0.47724552    -0.21200
C221        C  0.66138689  0.08121526  0.59295931    -0.22300
C222        C  0.65952087  0.11344275  0.59263954    -0.22300
C223        C  0.65310761  0.08012346  0.39820132    -0.22300
C224        C  0.65150955  0.11236081  0.39811747    -0.22300
C225        C  0.67725491  0.04105859  0.55321810    -0.17600
C226        C  0.67211795  0.04080708  0.43730207    -0.17600
C227        C  0.66672520  0.15340504  0.43688618    -0.17600
C228        C  0.67162552  0.15428672  0.55239844    -0.17600
H229        H  0.70667745  0.98682569  0.52527971     0.15300
H230        H  0.70381886  0.98665784  0.46267945     0.15300
H231        H  0.69792999  0.20997949  0.52428576     0.15300
H232        H  0.69488486  0.20961989  0.46171045     0.15300
H233        H  0.65797279  0.06630057  0.61356118     0.13600
H234        H  0.65453062  0.12830817  0.61297842     0.13600
H235        H  0.64925698  0.06497530  0.37783035     0.13600
H236        H  0.64636612  0.12702320  0.37768208     0.13600
H237        H  0.65567047  0.06808921  0.49615470     0.26800
H238        H  0.65189596  0.12559143  0.49577519     0.26800
N239        N  0.95163762  0.42235807  0.49842763    -0.35900
N240        N  0.99946609  0.41807577  0.54781610    -0.56500
N241        N  0.04917770  0.41971110  0.50078383    -0.35900
N242        N  0.00131483  0.42088512  0.45148605    -0.56500
C243        C  0.93463372  0.41245385  0.52369014     0.27700
C244        C  0.93575534  0.41378079  0.47190191     0.27700
C245        C  0.06516370  0.40998779  0.52685410     0.27700
C246        C  0.06604830  0.41090652  0.47495146     0.27700
C247        C  0.97375918  0.42344012  0.56583351     0.36300
C248        C  0.02445005  0.42201675  0.56721937     0.36300
C249        C  0.97659848  0.42677670  0.43232310     0.36300
C250        C  0.02713698  0.42532624  0.43352178     0.36300
C251        C  0.90753393  0.39772368  0.51309839    -0.21200
C252        C  0.90823244  0.39859328  0.48038607    -0.21200
C253        C  0.09276430  0.39534031  0.51746249    -0.21200
C254        C  0.09332789  0.39593910  0.48470953    -0.21200
C255        C  0.98244754  0.43153016  0.59658331    -0.22300
C256        C  0.01460887  0.43059151  0.59747246    -0.22300
C257        C  0.98670201  0.43576666  0.40231327    -0.22300
C258        C  0.01881796  0.43490172  0.40308375    -0.22300
C259        C  0.94283563  0.41684689  0.55598494    -0.17600
C260        C  0.94540908  0.41964436  0.44030920    -0.17600
C261        C  0.05756762  0.41639206  0.44287977    -0.17600
C262        C  0.05560163  0.41446009  0.55882633    -0.17600
H263        H  0.88937600  0.38690006  0.52736610     0.15300
H264        H  0.89072480  0.38861760  0.46468761     0.15300
H265        H  0.11045305  0.38476716  0.53254326     0.15300
H266        H  0.11156339  0.38602649  0.46982169     0.15300
H267        H  0.96717559  0.43653030  0.61655536     0.13600
H268        H  0.02904337  0.43483972  0.61824035     0.13600
H269        H  0.97241687  0.44114031  0.38169843     0.13600
H270        H  0.03423924  0.43956482  0.38316164     0.13600
H271        H  0.97165690  0.43638717  0.49931131     0.26800
H272        H  0.02915661  0.43377186  0.50069073     0.26800
O273        O  0.25412742  0.39361296  0.23172378    -0.71100
O274        O  0.28061253  0.33110734  0.29063775    -0.71300
O275        O  0.29888182  0.34877120  0.23208439    -0.71200
O276        O  0.23601265  0.37581436  0.28985235    -0.71200
O277        O  0.20249289  0.34459329  0.26692387    -0.71100
O278        O  0.26692103  0.31349068  0.21326407    -0.71200
O279        O  0.24580958  0.29884546  0.27151361    -0.71100
O280        O  0.22402981  0.35923900  0.20849424    -0.71300
V281        V  0.26682744  0.36167573  0.26066934     1.35200
V282        V  0.23539869  0.32968704  0.24048663     1.35200
C283        C  0.23497805  0.38685427  0.20980681     0.78100
C284        C  0.26741423  0.30447854  0.29134952     0.78200
C285        C  0.29362692  0.32628739  0.21306893     0.78100
C286        C  0.20843801  0.36516085  0.28781309     0.78000
O287        O  0.75490211  0.29830318  0.26922305    -0.71100
O288        O  0.78150968  0.35815996  0.20779546    -0.71300
O289        O  0.80049180  0.34171438  0.26634680    -0.71200
O290        O  0.73600098  0.31458022  0.21063116    -0.71200
O291        O  0.70443199  0.34961186  0.23071353    -0.71100
O292        O  0.76864963  0.37607862  0.28714526    -0.71200
O293        O  0.74995979  0.39275195  0.22868088    -0.71100
O294        O  0.72271638  0.33284812  0.28916835    -0.71300
V295        V  0.76762124  0.32884372  0.23889961     1.35200
V296        V  0.73710739  0.36215079  0.25856600     1.35200
C297        C  0.73396734  0.30534632  0.28931939     0.78100
C298        C  0.77012987  0.38565719  0.20788467     0.78200
C299        C  0.79551848  0.36352187  0.28618497     0.78100
C300        C  0.70932920  0.32754620  0.21113665     0.78000
O301        O  0.79504121  0.33987144  0.72838852    -0.71100
O302        O  0.73227502  0.31451454  0.78687063    -0.71300
O303        O  0.74956197  0.29636211  0.72844860    -0.71200
O304        O  0.77757013  0.35833277  0.78693669    -0.71200
O305        O  0.74535192  0.39208041  0.76573884    -0.71100
O306        O  0.71685166  0.33006620  0.70795805    -0.71200
O307        O  0.69999187  0.34868114  0.76648972    -0.71100
O308        O  0.76262915  0.37342835  0.70722232    -0.71300
V309        V  0.76299974  0.32793308  0.75724566     1.35200
V310        V  0.73186320  0.36042353  0.73724325     1.35200
C311        C  0.78951291  0.36083158  0.70779627     0.78100
C312        C  0.70551862  0.32728020  0.78665086     0.78200
C313        C  0.72835062  0.30268375  0.70841646     0.78100
C314        C  0.76598123  0.38572339  0.78632301     0.78000
O315        O  0.72062319  0.86107676  0.28707569    -0.71100
O316        O  0.74944710  0.79696048  0.23160617    -0.71300
O317        O  0.76518093  0.81673013  0.29019129    -0.71200
O318        O  0.70493454  0.84142518  0.22879411    -0.71200
O319        O  0.73850607  0.87401118  0.20803610    -0.71100
O320        O  0.79877456  0.84940142  0.26962154    -0.71200
O321        O  0.78310182  0.82951009  0.21095214    -0.71100
O322        O  0.75405872  0.89391419  0.26651846    -0.71300
V323        V  0.73574371  0.82966253  0.25900256     1.35200
V324        V  0.76801110  0.86105649  0.23918722     1.35200
C325        C  0.73227540  0.88838895  0.28614242     0.78100
C326        C  0.77091974  0.80239958  0.21163679     0.78200
C327        C  0.79214438  0.82898541  0.29044075     0.78100
C328        C  0.71137851  0.86208973  0.20821107     0.78000
O329        O  0.76193375  0.82184689  0.71370268    -0.71100
O330        O  0.70002648  0.84976053  0.77196312    -0.71300
O331        O  0.71822066  0.86720975  0.71332249    -0.71200
O332        O  0.74399585  0.80457087  0.77236672    -0.71200
O333        O  0.77831174  0.83692938  0.79221788    -0.71100
O334        O  0.75093112  0.90030006  0.73466627    -0.71200
O335        O  0.73377614  0.88166118  0.79351462    -0.71100
O336        O  0.79519089  0.85530309  0.73357789    -0.71300
V337        V  0.73169410  0.83649609  0.74325901     1.35200
V338        V  0.76387526  0.86796413  0.76310061     1.35200
C339        C  0.78897033  0.83393496  0.71358299     0.78100
C340        C  0.70646175  0.87008815  0.79291577     0.78200
C341        C  0.73029813  0.89438170  0.71387827     0.78100
C342        C  0.76569062  0.81002129  0.79214263     0.78000
O343        O  0.23075398  0.81596025  0.29168146    -0.71100
O344        O  0.29149836  0.84226134  0.23116812    -0.71300
O345        O  0.27635358  0.85976900  0.29048781    -0.71200
O346        O  0.24560820  0.79845322  0.23230732    -0.71200
O347        O  0.21505213  0.83379468  0.21120485    -0.71100
O348        O  0.24150474  0.89295713  0.27301365    -0.71200
O349        O  0.25938467  0.87813674  0.21372978    -0.71100
O350        O  0.19707922  0.84837774  0.27072910    -0.71300
V351        V  0.26046509  0.82973663  0.26101517     1.35200
V352        V  0.22885792  0.86263887  0.24260193     1.35200
C353        C  0.20338806  0.82736902  0.29108817     0.78100
C354        C  0.28596927  0.86502162  0.21258759     0.78200
C355        C  0.26389045  0.88676846  0.29169006     0.78100
C356        C  0.22538018  0.80594910  0.21161631     0.78000
O357        O  0.27991056  0.86660472  0.71590112    -0.71100
O358        O  0.24710530  0.80486275  0.77172131    -0.71300
O359        O  0.23272958  0.82493375  0.71312364    -0.71200
O360        O  0.29439359  0.84660151  0.77467078    -0.71200
O361        O  0.26334739  0.88271902  0.79356872    -0.71100
O362        O  0.20035900  0.85841804  0.73449829    -0.71200
O363        O  0.21727238  0.84035532  0.79370413    -0.71100
O364        O  0.24687007  0.90086653  0.73489612    -0.71300
V365        V  0.26293907  0.83641647  0.74425435     1.35200
V366        V  0.23251908  0.86989453  0.76373300     1.35200
C367        C  0.26868774  0.89412974  0.71573093     0.78100
C368        C  0.22716546  0.81235303  0.79261192     0.78200
C369        C  0.20599974  0.83784892  0.71345330     0.78100
C370        C  0.28939611  0.86853318  0.79441940     0.78000
O371        O  0.29853324  0.34785983  0.76874040    -0.71100
O372        O  0.23400519  0.37067145  0.71089511    -0.71300
O373        O  0.25158169  0.39007809  0.76869247    -0.71200
O374        O  0.28093014  0.32837530  0.71074136    -0.71200
O375        O  0.24752838  0.29478984  0.73009926    -0.71100
O376        O  0.22372743  0.35447161  0.79287959    -0.71200
O377        O  0.20203140  0.33851196  0.73466365    -0.71100
O378        O  0.26873060  0.31093352  0.78791241    -0.71300
V379        V  0.26567915  0.35857964  0.74016679     1.35200
V380        V  0.23601898  0.32532905  0.76094150     1.35200
C381        C  0.29473401  0.32517323  0.78782786     0.78100
C382        C  0.20687092  0.35898236  0.71333961     0.78200
C383        C  0.23340060  0.38251137  0.79111773     0.78100
C384        C  0.26892774  0.30119824  0.71033250     0.78000
C385        C  0.09991067  0.38760485  0.62624085     0.21000
C386        C  0.10667683  0.36875190  0.65287066    -0.38800
C387        C  0.13684836  0.37230556  0.66577885     0.20000
C388        C  0.15848975  0.39311415  0.65311102     0.22600
C389        C  0.15168939  0.41199580  0.62658771    -0.39400
C390        C  0.12162037  0.40836704  0.61363439     0.21400
N391        N  0.07349619  0.38766627  0.60878656    -0.32600
C392        C  0.07850591  0.40846609  0.58480445    -0.10200
C393        C  0.10822059  0.42197702  0.58713182    -0.29000
N394        N  0.18585387  0.39127152  0.66880387    -0.45600
C395        C  0.18175035  0.36907233  0.69159135    -0.04900
C396        C  0.15140849  0.35677474  0.69060949    -0.22200
H397        H  0.08992185  0.35211458  0.66242501     0.19600
H398        H  0.16880033  0.42786747  0.61637776     0.18400
H399        H  0.11879308  0.43888859  0.57113297     0.14600
H400        H  0.14161539  0.33846465  0.70551238     0.14500
H401        H  0.05362020  0.37374175  0.61236665     0.32700
H402        H  0.20628911  0.40393620  0.66391459     0.35400
C403        C  0.12221516  0.41052987  0.38894697     0.21000
C404        C  0.15212251  0.41686950  0.37676247    -0.38800
C405        C  0.16050234  0.39978091  0.34951754     0.20000
C406        C  0.14055625  0.37817124  0.33535201     0.22600
C407        C  0.11055483  0.37197471  0.34740325    -0.39400
C408        C  0.10225440  0.38895128  0.37474922     0.21400
N409        N  0.10906934  0.42296625  0.41515370    -0.32600
C410        C  0.08051267  0.40927924  0.41747809    -0.10200
C411        C  0.07542743  0.38788196  0.39279755    -0.29000
N412        N  0.15475386  0.36377578  0.31080417    -0.45600
C413        C  0.18399534  0.37614937  0.30961043    -0.04900
C414        C  0.18838781  0.39886227  0.33313893    -0.22200
H415        H  0.16796309  0.43334783  0.38807203     0.19600
H416        H  0.09509818  0.35474554  0.33669528     0.18400
H417        H  0.05488481  0.37344639  0.38878959     0.14600
H418        H  0.20952706  0.41200403  0.33831545     0.14500
H419        H  0.11878280  0.43975442  0.43043748     0.32700
H420        H  0.14554484  0.34587210  0.29652147     0.35400
C421        C  0.90178646  0.39283512  0.37295315     0.21000
C422        C  0.89476127  0.37301917  0.34720919    -0.38800
C423        C  0.86494972  0.37707594  0.33380032     0.20000
C424        C  0.84388207  0.39930429  0.34507486     0.22600
C425        C  0.85095334  0.41916752  0.37075411    -0.39400
C426        C  0.88065202  0.41494705  0.38433382     0.21400
N427        N  0.92777760  0.39241491  0.39091419    -0.32600
C428        C  0.92299949  0.41416716  0.41403574    -0.10200
C429        C  0.89395918  0.42886369  0.41068812    -0.29000
N430        N  0.81665074  0.39758524  0.32918252    -0.45600
C431        C  0.82037739  0.37402249  0.30776585    -0.04900
C432        C  0.85022438  0.36072380  0.30976791    -0.22200
H433        H  0.91098567  0.35523561  0.33878732     0.19600
H434        H  0.83424051  0.43605652  0.38001794     0.18400
H435        H  0.88369115  0.44659433  0.42601993     0.14600
H436        H  0.85956593  0.34125827  0.29604933     0.14500
H437        H  0.94711960  0.37749108  0.38835469     0.32700
H438        H  0.79656262  0.41116526  0.33309202     0.35400
C439        C  0.89627596  0.38870986  0.62084579     0.21000
C440        C  0.88902811  0.36954060  0.64697966    -0.38800
C441        C  0.85863090  0.37289939  0.65916658     0.20000
C442        C  0.83708965  0.39375760  0.64630583     0.22600
C443        C  0.84433716  0.41290588  0.62008556    -0.39400
C444        C  0.87477478  0.40953631  0.60786783     0.21400
N445        N  0.92327890  0.38930372  0.60449860    -0.32600
C446        C  0.91897479  0.41054411  0.58083358    -0.10200
C447        C  0.88901800  0.42377273  0.58216942    -0.29000
N448        N  0.80970268  0.39222347  0.66204752    -0.45600
C449        C  0.81389812  0.37022246  0.68503380    -0.04900
C450        C  0.84410163  0.35763916  0.68400447    -0.22200
H451        H  0.90574795  0.35304654  0.65692063     0.19600
H452        H  0.82745015  0.42900969  0.60979695     0.18400
H453        H  0.87890701  0.44094341  0.56611492     0.14600
H454        H  0.85400911  0.33965633  0.69926844     0.14500
H455        H  0.94315056  0.37546406  0.60860487     0.32700
H456        H  0.78938945  0.40520273  0.65736041     0.35400
C457        C  0.70005472  0.19926502  0.61807031     0.21000
C458        C  0.71929974  0.20566242  0.64422292    -0.38800
C459        C  0.71498217  0.23514230  0.65830138     0.20000
C460        C  0.69321338  0.25673386  0.64716572     0.22600
C461        C  0.67384972  0.25030828  0.62092082    -0.39400
C462        C  0.67815133  0.22066444  0.60681416     0.21400
N463        N  0.70018059  0.17310229  0.60031244    -0.32600
C464        C  0.67818823  0.17771978  0.57756045    -0.10200
C465        C  0.66387311  0.20713554  0.58073505    -0.29000
N466        N  0.69467782  0.28352566  0.66408889    -0.45600
C467        C  0.71760738  0.27875685  0.68593655    -0.04900
C468        C  0.73064740  0.24884840  0.68323099    -0.22200
H469        H  0.73663968  0.18903484  0.65274064     0.19600
H470        H  0.65703199  0.26723203  0.61193402     0.18400
H471        H  0.64577579  0.21724767  0.56581501     0.14600
H472        H  0.74963315  0.23884459  0.69705505     0.14500
H473        H  0.71471744  0.15346997  0.60313659     0.32700
H474        H  0.68142983  0.30394827  0.66058628     0.35400
C475        C  0.71836072  0.23870339  0.33803350     0.21000
C476        C  0.72313728  0.20854556  0.35052054    -0.38800
C477        C  0.70120207  0.19880294  0.37321625     0.20000
C478        C  0.67642998  0.21765746  0.38293747     0.22600
C479        C  0.67158670  0.24785713  0.37034880    -0.39400
C480        C  0.69357397  0.25761863  0.34757635     0.21400
N481        N  0.73608462  0.25342224  0.31628383    -0.32600
C482        C  0.72252040  0.28193123  0.31201798    -0.10200
C483        C  0.69599424  0.28550735  0.33110934    -0.29000
N484        N  0.65997225  0.20350157  0.40614981    -0.45600
C485        C  0.67443866  0.17548689  0.41094330    -0.04900
C486        C  0.70010284  0.17165676  0.39083395    -0.22200
H487        H  0.74272235  0.19390159  0.34339192     0.19600
H488        H  0.65244412  0.26280370  0.37804698     0.18400
H489        H  0.68046069  0.30564918  0.33248803     0.14600
H490        H  0.71655319  0.15222101  0.39033176     0.14500
H491        H  0.75612532  0.24463120  0.30503324     0.32700
H492        H  0.64081328  0.21263105  0.41863350     0.35400
C493        C  0.68117197  0.97564331  0.38401706     0.21000
C494        C  0.67692897  0.94489897  0.37275506    -0.38800
C495        C  0.69526859  0.93648106  0.34642903     0.20000
C496        C  0.71626370  0.95707029  0.33232120     0.22600
C497        C  0.72041692  0.98792128  0.34349433    -0.39400
C498        C  0.70204630  0.99634101  0.36987045     0.21400
N499        N  0.66740982  0.98890138  0.40947012    -0.32600
C500        C  0.67956766  0.01826553  0.41147493    -0.10200
C501        C  0.70122687  0.02381077  0.38720533    -0.29000
N502        N  0.73184992  0.94279747  0.30852351    -0.45600
C503        C  0.72069096  0.91293387  0.30768854    -0.04900
C504        C  0.69773537  0.90817621  0.33078110    -0.22200
H505        H  0.66097115  0.92853565  0.38403993     0.19600
H506        H  0.73711131  0.00396081  0.33284269     0.18400
H507        H  0.71503272  0.04484847  0.38334771     0.14600
H508        H  0.68517498  0.88663891  0.33596836     0.14500
H509        H  0.65111602  0.97854181  0.42479962     0.32700
H510        H  0.74940651  0.95251861  0.29423942     0.35400
C511        C  0.69867015  0.93975767  0.64982560     0.21000
C512        C  0.68057666  0.94555717  0.62251860    -0.38800
C513        C  0.68480672  0.97513190  0.60832040     0.20000
C514        C  0.70544618  0.99724719  0.62045562     0.22600
C515        C  0.72357988  0.99144835  0.64774784    -0.39400
C516        C  0.71936678  0.96184440  0.66193079     0.21400
N517        N  0.69949757  0.91320015  0.66717488    -0.32600
C518        C  0.72092977  0.91834933  0.69044472    -0.10200
C519        C  0.73377975  0.94846883  0.68803661    -0.29000
N520        N  0.70533438  0.02339057  0.60247577    -0.45600
C521        C  0.68451718  0.01788827  0.57868365    -0.04900
C522        C  0.67122911  0.98801062  0.58151648    -0.22200
H523        H  0.66457407  0.92821697  0.61289092     0.19600
H524        H  0.73992132  0.00862058  0.65710015     0.18400
H525        H  0.75169957  0.95888855  0.70295074     0.14600
H526        H  0.65398669  0.97725470  0.56604152     0.14500
H527        H  0.68668616  0.89262788  0.66309371     0.32700
H528        H  0.71880523  0.04364410  0.60595219     0.35400
C529        C  0.09703781  0.79550493  0.37682976     0.21000
C530        C  0.10389622  0.81460734  0.35059729    -0.38800
C531        C  0.13438290  0.81196703  0.33860033     0.20000
C532        C  0.15645125  0.79178780  0.35163860     0.22600
C533        C  0.14958990  0.77262225  0.37799489    -0.39400
C534        C  0.11900681  0.77534787  0.39010911     0.21400
N535        N  0.07030689  0.79516299  0.39360448    -0.32600
C536        C  0.07527556  0.77490667  0.41796259    -0.10200
C537        C  0.10530955  0.76184645  0.41653604    -0.29000
N538        N  0.18399189  0.79445259  0.33627081    -0.45600
C539        C  0.17924797  0.81654490  0.31343586    -0.04900
C540        C  0.14862641  0.82793058  0.31412913    -0.22200
H541        H  0.08691785  0.83083710  0.34066567     0.19600
H542        H  0.16693653  0.75728291  0.38868524     0.18400
H543        H  0.11603618  0.74581041  0.43335783     0.14600
H544        H  0.13830349  0.84578117  0.29899451     0.14500
H545        H  0.05039458  0.80899126  0.38966001     0.32700
H546        H  0.20475515  0.78231208  0.34121432     0.35400
C547        C  0.11912623  0.79438880  0.61107451     0.21000
C548        C  0.14878832  0.78739437  0.62368434    -0.38800
C549        C  0.15826420  0.80596591  0.64957118     0.20000
C550        C  0.13964406  0.82974186  0.66195989     0.22600
C551        C  0.10993007  0.83675320  0.64934159    -0.39400
C552        C  0.10038878  0.81806516  0.62350155     0.21400
N553        N  0.10478327  0.78002977  0.58656760    -0.32600
C554        C  0.07659714  0.79445200  0.58351073    -0.10200
C555        C  0.07297881  0.81836439  0.60606982    -0.29000
N556        N  0.15411853  0.84399740  0.68649970    -0.45600
C557        C  0.18215932  0.82921065  0.68966574    -0.04900
C558        C  0.18557811  0.80535263  0.66707571    -0.22200
H559        H  0.16340902  0.76883087  0.61405534     0.19600
H560        H  0.09529685  0.85530193  0.65898446     0.18400
H561        H  0.05300324  0.83382218  0.60919048     0.14600
H562        H  0.20543570  0.78976750  0.66382746     0.14500
H563        H  0.11343717  0.76135749  0.57292758     0.32700
H564        H  0.14557590  0.86276389  0.70008276     0.35400
C565        C  0.87449231  0.78584006  0.61259996     0.21000
C566        C  0.84373414  0.78149797  0.62358187    -0.38800
C567        C  0.83531276  0.79947509  0.65028972     0.20000
C568        C  0.85593973  0.82014743  0.66487477     0.22600
C569        C  0.88658326  0.82455268  0.65383231    -0.39400
C570        C  0.89495743  0.80664485  0.62717938     0.21400
N571        N  0.88819305  0.77198055  0.58740598    -0.32600
C572        C  0.91755430  0.78415603  0.58603753    -0.10200
C573        C  0.92250318  0.80596592  0.61035659    -0.29000
N574        N  0.84216659  0.83481990  0.68948370    -0.45600
C575        C  0.81253746  0.82345761  0.69052191    -0.04900
C576        C  0.80735076  0.80132109  0.66654313    -0.22200
H577        H  0.82752323  0.76551752  0.61207934     0.19600
H578        H  0.90264751  0.84090099  0.66501483     0.18400
H579        H  0.94331473  0.81989685  0.61473077     0.14600
H580        H  0.78591089  0.78863845  0.66147018     0.14500
H581        H  0.87818029  0.75549435  0.57198397     0.32700
H582        H  0.85218920  0.85172710  0.70442830     0.35400
C583        C  0.89595476  0.79660548  0.37910793     0.21000
C584        C  0.88986161  0.81632645  0.35311147    -0.38800
C585        C  0.85932565  0.81498312  0.34100715     0.20000
C586        C  0.83653708  0.79558719  0.35390956     0.22600
C587        C  0.84258030  0.77597928  0.38009423    -0.39400
C588        C  0.87323472  0.77720312  0.39212040     0.21400
N589        N  0.92282077  0.79442228  0.39550306    -0.32600
C590        C  0.91720018  0.77370543  0.41932730    -0.10200
C591        C  0.88657618  0.76217855  0.41786770    -0.29000
N592        N  0.80952050  0.79838583  0.33774274    -0.45600
C593        C  0.81529967  0.81960491  0.31437803    -0.04900
C594        C  0.84602093  0.83062799  0.31572563    -0.22200
H595        H  0.90758583  0.83163588  0.34309799     0.19600
H596        H  0.82474054  0.76098156  0.39037315     0.18400
H597        H  0.87529129  0.74611178  0.43425340     0.14600
H598        H  0.85719981  0.84744948  0.30005070     0.14500
H599        H  0.94331934  0.80733353  0.39164727     0.32700
H600        H  0.78857785  0.78638601  0.34210605     0.35400
C601        C  0.29943588  0.19759129  0.37730352     0.21000
C602        C  0.27858240  0.20508651  0.35264922    -0.38800
C603        C  0.28119683  0.23560870  0.34034067     0.20000
C604        C  0.30300904  0.25702232  0.35163134     0.22600
C605        C  0.32387659  0.24953265  0.37638732    -0.39400
C606        C  0.32114658  0.21899891  0.38883760     0.21400
N607        N  0.30061835  0.17063381  0.39386095    -0.32600
C608        C  0.32296526  0.17496208  0.41634789    -0.10200
C609        C  0.33649784  0.20477010  0.41391373    -0.29000
N610        N  0.30066410  0.28446840  0.33588129    -0.45600
C611        C  0.27721799  0.28040709  0.31443938    -0.04900
C612        C  0.26444762  0.25027939  0.31657302    -0.22200
H613        H  0.26133425  0.18848335  0.34395125     0.19600
H614        H  0.34067641  0.26635173  0.38555120     0.18400
H615        H  0.35429512  0.21494386  0.42914434     0.14600
H616        H  0.24563732  0.24038121  0.30244888     0.14500
H617        H  0.28623077  0.15093620  0.39094596     0.32700
H618        H  0.31428275  0.30462188  0.33934753     0.35400
C619        C  0.31970939  0.21464824  0.61147536     0.21000
C620        C  0.32516553  0.24482093  0.62384991    -0.38800
C621        C  0.30565600  0.25382695  0.64913811     0.20000
C622        C  0.28256516  0.23424050  0.66119121     0.22600
C623        C  0.27721801  0.20404382  0.64894415    -0.39400
C624        C  0.29669848  0.19505918  0.62369333     0.21400
N625        N  0.33414236  0.20101471  0.58659854    -0.32600
C626        C  0.32023937  0.17255819  0.58318402    -0.10200
C627        C  0.29685048  0.16794760  0.60587078    -0.29000
N628        N  0.26667261  0.24857818  0.68465208    -0.45600
C629        C  0.27968435  0.27751460  0.68746414    -0.04900
C630        C  0.30412520  0.28168289  0.66582774    -0.22200
H631        H  0.34291737  0.26031054  0.61418090     0.19600
H632        H  0.25894514  0.18885225  0.65809032     0.18400
H633        H  0.28147630  0.14781754  0.60830626     0.14600
H634        H  0.31856475  0.30238539  0.66256488     0.14500
H635        H  0.35194760  0.21056571  0.57251761     0.32700
H636        H  0.24793062  0.23939093  0.69769424     0.35400
C637        C  0.30380883  0.93820045  0.65333537     0.21000
C638        C  0.32154431  0.94305846  0.62566761    -0.38800
C639        C  0.31761992  0.97247442  0.61113287     0.20000
C640        C  0.29768765  0.99525250  0.62337970     0.22600
C641        C  0.28009112  0.99046949  0.65105587    -0.39400
C642        C  0.28389457  0.96106376  0.66546415     0.21400
N643        N  0.30181420  0.91164126  0.67048449    -0.32600
C644        C  0.28026832  0.91771041  0.69338528    -0.10200
C645        C  0.26879702  0.94832871  0.69126101    -0.29000
N646        N  0.29769025  0.02096180  0.60497927    -0.45600
C647        C  0.31781546  0.01457025  0.58088733    -0.04900
C648        C  0.33070283  0.98453356  0.58377886    -0.22200
H649        H  0.33675872  0.92507549  0.61586002     0.19600
H650        H  0.26414865  0.00810337  0.66031468     0.18400
H651        H  0.25086722  0.95929763  0.70578753     0.14600
H652        H  0.34744722  0.97324340  0.56810418     0.14500
H653        H  0.31343803  0.89038863  0.66615423     0.32700
H654        H  0.28472014  0.04157350  0.60847734     0.35400
C655        C  0.30319774  0.93473460  0.34887793     0.21000
C656        C  0.32540960  0.94260367  0.37224195    -0.38800
C657        C  0.32221565  0.97274726  0.38557532     0.20000
C658        C  0.29890524  0.99346373  0.37602213     0.22600
C659        C  0.27677431  0.98560978  0.35275834    -0.39400
C660        C  0.27980542  0.95548562  0.33967811     0.21400
N661        N  0.30050215  0.90731221  0.33311849    -0.32600
C662        C  0.27520090  0.91082699  0.31388420    -0.10200
C663        C  0.26170839  0.94050662  0.31730623    -0.29000
N664        N  0.29976494  0.01995312  0.39330980    -0.45600
C665        C  0.32348547  0.01598373  0.41430916    -0.04900
C666        C  0.33823764  0.98692559  0.41022645    -0.22200
H667        H  0.34335349  0.92624628  0.37996336     0.19600
H668        H  0.25816304  0.00156033  0.34582205     0.18400
H669        H  0.24135175  0.94982282  0.30509232     0.14600
H670        H  0.35714110  0.97708135  0.42427108     0.14500
H671        H  0.31491231  0.88751081  0.33528607     0.32700
H672        H  0.28423683  0.03896663  0.39200802     0.35400
C673        C  0.81614810  0.47361625  0.10810850     0.21000
C674        C  0.82277689  0.44344699  0.11996541    -0.38800
C675        C  0.80391550  0.43353997  0.14540681     0.20000
C676        C  0.78037115  0.45233018  0.15796073     0.22600
C677        C  0.77378316  0.48240672  0.14616517    -0.39400
C678        C  0.79261395  0.49229064  0.12086191     0.21400
N679        N  0.82991735  0.48816195  0.08342172    -0.32600
C680        C  0.81504569  0.51624497  0.08074446    -0.10200
C681        C  0.79168496  0.51969844  0.10362775    -0.29000
N682        N  0.76557371  0.43756436  0.18175024    -0.45600
C683        C  0.77970363  0.40914059  0.18439652    -0.04900
C684        C  0.80374290  0.40563259  0.16215199    -0.22200
H685        H  0.84101194  0.42870495  0.10994611     0.19600
H686        H  0.75519173  0.49693936  0.15582562     0.18400
H687        H  0.77565103  0.53927449  0.10657710     0.14600
H688        H  0.81893060  0.38546664  0.15871886     0.14500
H689        H  0.84789533  0.47943592  0.06898328     0.32700
H690        H  0.74686123  0.44622891  0.19524319     0.35400
C691        C  0.79497682  0.69761016  0.12097066     0.21000
C692        C  0.77705584  0.70422085  0.14810999    -0.38800
C693        C  0.78196789  0.73388456  0.16174763     0.20000
C694        C  0.80307328  0.75537259  0.14928511     0.22600
C695        C  0.82098285  0.74876536  0.12204336    -0.39400
C696        C  0.81609137  0.71902626  0.10839555     0.21400
N697        N  0.79423250  0.67125695  0.10342283    -0.32600
C698        C  0.81498735  0.67587773  0.07947345    -0.10200
C699        C  0.82913133  0.70540341  0.08170102    -0.29000
N700        N  0.80253328  0.78230981  0.16606064    -0.45600
C701        C  0.78083745  0.77787444  0.18921124    -0.04900
C702        C  0.76762138  0.74793408  0.18740135    -0.22200
H703        H  0.76028100  0.68761715  0.15769294     0.19600
H704        H  0.83723321  0.76563923  0.11202905     0.18400
H705        H  0.84639588  0.71550363  0.06582073     0.14600
H706        H  0.74930772  0.73815135  0.20224891     0.14500
H707        H  0.78014351  0.65148730  0.10718936     0.32700
H708        H  0.81547754  0.80270136  0.16154160     0.35400
C709        C  0.81525584  0.71782616  0.88682973     0.21000
C710        C  0.82177838  0.74823558  0.87548386    -0.38800
C711        C  0.80168340  0.75936067  0.85148548     0.20000
C712        C  0.77698808  0.74155223  0.83988723     0.22600
C713        C  0.77047184  0.71125886  0.85124131    -0.39400
C714        C  0.79063544  0.70007808  0.87497619     0.21400
N715        N  0.83008643  0.70223137  0.91026516    -0.32600
C716        C  0.81484409  0.67436720  0.91304395    -0.10200
C717        C  0.79016776  0.67213544  0.89144737    -0.29000
N718        N  0.76119382  0.75736505  0.81736550    -0.45600
C719        C  0.77584483  0.78548975  0.81452561    -0.04900
C720        C  0.80123727  0.78769501  0.83541870    -0.22200
H721        H  0.84089765  0.76224755  0.88479169     0.19600
H722        H  0.75101084  0.69746157  0.84234726     0.18400
H723        H  0.77340975  0.65314113  0.88909815     0.14600
H724        H  0.81715994  0.80731728  0.83840602     0.14500
H725        H  0.84883796  0.71026424  0.92406327     0.32700
H726        H  0.74155460  0.74953876  0.80476581     0.35400
C727        C  0.79943475  0.43274638  0.84783031     0.21000
C728        C  0.81890927  0.44008321  0.87373017    -0.38800
C729        C  0.81481565  0.47026403  0.88669526     0.20000
C730        C  0.79301499  0.49138263  0.87471003     0.22600
C731        C  0.77351836  0.48401781  0.84898478    -0.39400
C732        C  0.77763868  0.45396882  0.83604240     0.21400
N733        N  0.79835426  0.40557985  0.83145585    -0.32600
C734        C  0.77573377  0.40977529  0.80918057    -0.10200
C735        C  0.76230068  0.43958924  0.81129025    -0.29000
N736        N  0.79311442  0.51819586  0.89151189    -0.45600
C737        C  0.81500577  0.51415079  0.91448187    -0.04900
C738        C  0.82914997  0.48457373  0.91229615    -0.22200
H739        H  0.83577723  0.42348142  0.88321416     0.19600
H740        H  0.75626899  0.50041810  0.83984703     0.18400
H741        H  0.74359596  0.44928522  0.79685684     0.14600
H742        H  0.84696465  0.47474453  0.92774853     0.14500
H743        H  0.81194587  0.38544680  0.83529548     0.32700
H744        H  0.77859445  0.53775648  0.88815127     0.35400
C745        C  0.62198176  0.91425726  0.11314593     0.21000
C746        C  0.65367156  0.91679715  0.12169808    -0.38800
C747        C  0.66317867  0.89785216  0.14726436     0.20000
C748        C  0.64267584  0.87792446  0.16300252     0.22600
C749        C  0.61102952  0.87546850  0.15453896    -0.39400
C750        C  0.60154119  0.89440345  0.12905318     0.21400
N751        N  0.60748393  0.92839494  0.08863059    -0.32600
C752        C  0.57768607  0.91732371  0.08898662    -0.10200
C753        C  0.57306333  0.89621728  0.11393764    -0.29000
N754        N  0.65744535  0.86226100  0.18629491    -0.45600
C755        C  0.68751726  0.87240115  0.18548454    -0.04900
C756        C  0.69209514  0.89456287  0.16145910    -0.22200
H757        H  0.66979226  0.93204915  0.10913020     0.19600
H758        H  0.59507921  0.85965705  0.16661931     0.18400
H759        H  0.55212060  0.88280586  0.11921577     0.14600
H760        H  0.71355976  0.90677695  0.15543086     0.14500
H761        H  0.61745838  0.94370680  0.07201533     0.32700
H762        H  0.64759642  0.84596858  0.20201330     0.35400
C763        C  0.37483629  0.91563583  0.11578364     0.21000
C764        C  0.34330515  0.91876623  0.12489194    -0.38800
C765        C  0.33410539  0.90073096  0.15127136     0.20000
C766        C  0.35472641  0.88100480  0.16716373     0.22600
C767        C  0.38619914  0.87793173  0.15810167    -0.39400
C768        C  0.39540359  0.89602208  0.13186621     0.21400
N769        N  0.38906843  0.92906661  0.09069548    -0.32600
C770        C  0.41885083  0.91781448  0.09081823    -0.10200
C771        C  0.42368851  0.89723936  0.11622514    -0.29000
N772        N  0.34015095  0.86582429  0.19092761    -0.45600
C773        C  0.31005781  0.87601690  0.19029019    -0.04900
C774        C  0.30532974  0.89787715  0.16594916    -0.22200
H775        H  0.32706482  0.93377957  0.11213911     0.19600
H776        H  0.40222557  0.86224762  0.17029682     0.18400
H777        H  0.44466678  0.88386698  0.12158800     0.14600
H778        H  0.28372395  0.90976254  0.15966279     0.14500
H779        H  0.37894366  0.94417364  0.07395860     0.32700
H780        H  0.35005633  0.84950710  0.20660620     0.35400
C781        C  0.35603473  0.87756547  0.84502027     0.21000
C782        C  0.38620011  0.87141026  0.85681371    -0.38800
C783        C  0.39520741  0.88931770  0.88333414     0.20000
C784        C  0.37558804  0.91145504  0.89719759     0.22600
C785        C  0.34544920  0.91759057  0.88541582    -0.39400
C786        C  0.33652297  0.89985540  0.85877278     0.21400
N787        N  0.34185575  0.86367227  0.82014387    -0.32600
C788        C  0.31315700  0.87727450  0.81809510    -0.10200
C789        C  0.30898458  0.89998454  0.84171355    -0.29000
N790        N  0.38954717  0.92513404  0.92229342    -0.45600
C791        C  0.41832187  0.91176223  0.92422636    -0.04900
C792        C  0.42272924  0.88926546  0.90041643    -0.22200
H793        H  0.40151490  0.85400793  0.84613018     0.19600
H794        H  0.33008748  0.93488867  0.89619701     0.18400
H795        H  0.28845385  0.91440246  0.84599321     0.14600
H796        H  0.44319238  0.87465849  0.89645916     0.14500
H797        H  0.35103919  0.84594951  0.80559345     0.32700
H798        H  0.38017133  0.94247512  0.93718454     0.35400
C799        C  0.62056479  0.91169503  0.89661916     0.21000
C800        C  0.65188778  0.91514071  0.88706939    -0.38800
C801        C  0.66004201  0.90001764  0.85856160     0.20000
C802        C  0.63864333  0.88271013  0.84097630     0.22600
C803        C  0.60733843  0.87918345  0.85056818    -0.39400
C804        C  0.59920702  0.89432715  0.87907192     0.21400
N805        N  0.60707512  0.92344345  0.92297518    -0.32600
C806        C  0.57690905  0.91340401  0.92229772    -0.10200
C807        C  0.57118775  0.89507017  0.89527698    -0.29000
N808        N  0.65238789  0.87017748  0.81514046    -0.45600
C809        C  0.68271978  0.87962886  0.81629418    -0.04900
C810        C  0.68840850  0.89831184  0.84297775    -0.22200
H811        H  0.66870832  0.92844420  0.90091371     0.19600
H812        H  0.59062697  0.86547753  0.83698309     0.18400
H813        H  0.54957495  0.88338694  0.88870989     0.14600
H814        H  0.71042977  0.90873889  0.85025925     0.14500
H815        H  0.61775483  0.93732742  0.94042677     0.32700
H816        H  0.64187446  0.85584622  0.79795777     0.35400
C817        C  0.19950556  0.76280786  0.14386819     0.21000
C818        C  0.19429204  0.75713495  0.11137174    -0.38800
C819        C  0.18653638  0.72603221  0.10336444     0.20000
C820        C  0.18296794  0.70277386  0.12609572     0.22600
C821        C  0.18877519  0.70828442  0.15850028    -0.39400
C822        C  0.19773435  0.73904402  0.16637887     0.21400
N823        N  0.20886083  0.78987709  0.15737230    -0.32600
C824        C  0.21399863  0.78296335  0.18841887    -0.10200
C825        C  0.20740696  0.75153305  0.19501998    -0.29000
N826        N  0.17676463  0.67496917  0.11232984    -0.45600
C827        C  0.17806929  0.67994075  0.08040644    -0.04900
C828        C  0.18368374  0.71180937  0.07401859    -0.22200
H829        H  0.19728820  0.77528454  0.09353843     0.19600
H830        H  0.18768492  0.68966863  0.17606738     0.18400
H831        H  0.20952826  0.73950077  0.21764060     0.14600
H832        H  0.18744937  0.72281803  0.05110366     0.14500
H833        H  0.21265200  0.81142478  0.14601104     0.32700
H834        H  0.17275807  0.65378043  0.12424490     0.35400
C835        C  0.21716144  0.43279919  0.14118725     0.21000
C836        C  0.21573023  0.43998477  0.10862266    -0.38800
C837        C  0.20504318  0.47033130  0.10117373     0.20000
C838        C  0.19576021  0.49159698  0.12428742     0.22600
C839        C  0.19788125  0.48469659  0.15690150    -0.39400
C840        C  0.20931236  0.45461100  0.16441852     0.21400
N841        N  0.22673879  0.40566995  0.15445728    -0.32600
C842        C  0.22570754  0.41055577  0.18630481    -0.10200
C843        C  0.21517115  0.44081117  0.19352759    -0.29000
N844        N  0.18652268  0.51881779  0.11098133    -0.45600
C845        C  0.19088705  0.51534411  0.07913126    -0.04900
C846        C  0.20240582  0.48523546  0.07222994    -0.22200
H847        H  0.22278302  0.42332096  0.09045242     0.19600
H848        H  0.19155675  0.50165993  0.17506347     0.18400
H849        H  0.21195315  0.45112546  0.21688590     0.14600
H850        H  0.20917700  0.47581097  0.04928276     0.14500
H851        H  0.23420981  0.38533491  0.14264781     0.32700
H852        H  0.17806483  0.53860591  0.12303178     0.35400
C853        C  0.21201327  0.47246701  0.89681249     0.21000
C854        C  0.21955082  0.44066764  0.89212229    -0.38800
C855        C  0.21925429  0.43044180  0.86041230     0.20000
C856        C  0.21280973  0.45061608  0.83531188     0.22600
C857        C  0.20473738  0.48224580  0.84006731    -0.39400
C858        C  0.20429525  0.49223408  0.87182439     0.21400
N859        N  0.21058970  0.48791443  0.92462225    -0.32600
C860        C  0.20110344  0.51757857  0.91742553    -0.10200
C861        C  0.19693594  0.52108133  0.88462301    -0.29000
N862        N  0.21626183  0.43576724  0.80735619    -0.45600
C863        C  0.22432639  0.40585309  0.81481196    -0.04900
C864        C  0.22617580  0.40142028  0.84759997    -0.22200
H865        H  0.22530351  0.42509919  0.91168176     0.19600
H866        H  0.19938238  0.49793983  0.82049408     0.18400
H867        H  0.18906141  0.54175966  0.87184312     0.14600
H868        H  0.23328769  0.38034564  0.86018958     0.14500
H869        H  0.21593494  0.47875774  0.94706009     0.32700
H870        H  0.21383002  0.44544126  0.78461422     0.35400
C871        C  0.20246213  0.74493009  0.83561888     0.21000
C872        C  0.19424334  0.71335232  0.84029957    -0.38800
C873        C  0.18882235  0.70463323  0.87196833     0.20000
C874        C  0.19219011  0.72550777  0.89704983     0.22600
C875        C  0.19974541  0.75724471  0.89232045    -0.39400
C876        C  0.20433779  0.76619501  0.86059953     0.21400
N877        N  0.21021672  0.75876486  0.80803235    -0.32600
C878        C  0.21626435  0.78913925  0.81554474    -0.10200
C879        C  0.21270084  0.79482553  0.84797633    -0.29000
N880        N  0.18916675  0.71061464  0.92500973    -0.45600
C881        C  0.18355602  0.68000606  0.91775745    -0.04900
C882        C  0.18237885  0.67562968  0.88477892    -0.22200
H883        H  0.19293729  0.69665526  0.82084690     0.19600
H884        H  0.20252186  0.77357650  0.91192612     0.18400
H885        H  0.21695358  0.81660127  0.86068418     0.14600
H886        H  0.17892134  0.65385212  0.87183804     0.14500
H887        H  0.21146465  0.74826026  0.78555763     0.32700
H888        H  0.19272912  0.72042608  0.94753705     0.35400
C889        C  0.36058605  0.31439307  0.16389143     0.21000
C890        C  0.39030622  0.32087692  0.15137026    -0.38800
C891        C  0.39951478  0.30203619  0.12566179     0.20000
C892        C  0.38050922  0.27866351  0.11312696     0.22600
C893        C  0.35071093  0.27217200  0.12565424    -0.39400
C894        C  0.34156682  0.29092374  0.15156115     0.21400
N895        N  0.34620002  0.32949791  0.18786450    -0.32600
C896        C  0.31778527  0.31561277  0.19075032    -0.10200
C897        C  0.31403097  0.29136402  0.16865480    -0.29000
N898        N  0.39450357  0.26465800  0.08817920    -0.45600
C899        C  0.42264391  0.27914569  0.08513406    -0.04900
C900        C  0.42658935  0.30258710  0.10799134    -0.22200
H901        H  0.40508211  0.33938402  0.16080341     0.19600
H902        H  0.33567647  0.25408934  0.11580762     0.18400
H903        H  0.29363976  0.27660174  0.16510915     0.14600
H904        H  0.44638888  0.31828084  0.11080834     0.14500
H905        H  0.35489684  0.34849672  0.20098285     0.32700
H906        H  0.38547784  0.24661602  0.07395974     0.35400
C907        C  0.60357552  0.29893333  0.12357788     0.21000
C908        C  0.61100078  0.31947176  0.14858708    -0.38800
C909        C  0.64058568  0.31507176  0.16233999     0.20000
C910        C  0.66118522  0.29200896  0.15192414     0.22600
C911        C  0.65376562  0.27149049  0.12686341    -0.39400
C912        C  0.62416104  0.27588549  0.11309643     0.21400
N913        N  0.57734186  0.29891899  0.10601106    -0.32600
C914        C  0.58131640  0.27584864  0.08409060    -0.10200
C915        C  0.61017424  0.26081903  0.08776053    -0.29000
N916        N  0.68815352  0.29325937  0.16832414    -0.45600
C917        C  0.68466112  0.31731231  0.18923315    -0.04900
C918        C  0.65528746  0.33144221  0.18634535    -0.22200
H919        H  0.59508238  0.33776687  0.15647105     0.19600
H920        H  0.67000519  0.25373066  0.11843202     0.18400
H921        H  0.61980435  0.24198180  0.07337908     0.14600
H922        H  0.64620110  0.35135447  0.19957507     0.14500
H923        H  0.55823670  0.31420755  0.10817388     0.32700
H924        H  0.70786816  0.27895223  0.16518322     0.35400
C925        C  0.60200377  0.29960738  0.87726953     0.21000
C926        C  0.60929197  0.32062651  0.85267009    -0.38800
C927        C  0.63821983  0.31567371  0.83774338     0.20000
C928        C  0.65831287  0.29156707  0.84660619     0.22600
C929        C  0.65095018  0.27042393  0.87115954    -0.39400
C930        C  0.62204697  0.27548563  0.88623406     0.21400
N931        N  0.57652638  0.30017261  0.89591819    -0.32600
C932        C  0.58043190  0.27643150  0.91706087    -0.10200
C933        C  0.60848049  0.26034110  0.91178663    -0.29000
N934        N  0.68479236  0.29253717  0.82936074    -0.45600
C935        C  0.68143907  0.31739833  0.80941759    -0.04900
C936        C  0.65268411  0.33237781  0.81384288    -0.22200
H937        H  0.59381651  0.33975816  0.84602786     0.19600
H938        H  0.66680992  0.25182935  0.87839119     0.18400
H939        H  0.61784039  0.24070166  0.92519569     0.14600
H940        H  0.64383360  0.35299641  0.80162157     0.14500
H941        H  0.55793954  0.31620364  0.89490604     0.32700
H942        H  0.70405376  0.27741458  0.83122265     0.35400
C943        C  0.34376330  0.29163199  0.84761249     0.21000
C944        C  0.35136733  0.27195057  0.87328099    -0.38800
C945        C  0.38011038  0.27818903  0.88812077     0.20000
C946        C  0.39989016  0.30199816  0.87791205     0.22600
C947        C  0.39235676  0.32160158  0.85217693    -0.39400
C948        C  0.36347924  0.31553403  0.83751460     0.21400
N949        N  0.31709072  0.29160106  0.83066088    -0.32600
C950        C  0.31978939  0.31574098  0.80976497    -0.10200
C951        C  0.34846249  0.33113459  0.81315010    -0.29000
N952        N  0.42545834  0.30358775  0.89641571    -0.45600
C953        C  0.42178151  0.28078163  0.91862517    -0.04900
C954        C  0.39384599  0.26437073  0.91429531    -0.22200
H955        H  0.33574853  0.25359959  0.88151759     0.19600
H956        H  0.40755175  0.34056931  0.84456671     0.18400
H957        H  0.35674805  0.35154348  0.80021884     0.14600
H958        H  0.38485535  0.24510611  0.92846588     0.14500
H959        H  0.29790804  0.27660327  0.83366531     0.32700
H960        H  0.44409420  0.31941959  0.89439160     0.35400
loop_ 
_geom_bond_atom_site_label_1 
_geom_bond_atom_site_label_2 
_geom_bond_distance 
_geom_bond_site_symmetry_2 
_ccdc_geom_bond_type 
N1            C6   1.352   1_554  A
N1            C5   1.352       .  A
N1           H33   1.041       .  S
N2            C9   1.351       .  A
N2           C10   1.350       .  A
N3            C8   1.353   1_554  A
N3            C7   1.352       .  A
N3           H34   1.041       .  S
N4           C11   1.350       .  A
N4           C12   1.350       .  A
C5           C13   1.387       .  A
C5           C21   1.411       .  A
C6           C22   1.411       .  A
C6           C14   1.387       .  A
C7           C15   1.388       .  A
C7           C24   1.413       .  A
C8           C23   1.412       .  A
C8           C16   1.386       .  A
C9           C21   1.410       .  A
C9           C17   1.386       .  A
C10          C24   1.409       .  A
C10          C18   1.386       .  A
C11          C19   1.386       .  A
C11          C22   1.407       .  A
C12          C20   1.386       .  A
C12          C23   1.407       .  A
C13          C14   1.374   1_554  A
C13          H25   1.082       .  S
C14          H26   1.082       .  S
C15          C16   1.373   1_554  A
C15          H27   1.082       .  S
C16          H28   1.082       .  S
C17          C18   1.371       .  A
C17          H29   1.082       .  S
C18          H30   1.082       .  S
C19          C20   1.369       .  A
C19          H31   1.082       .  S
C20          H32   1.082       .  S
C21         C899   1.478       .  S
C22         C953   1.475       .  S
C23         C932   1.478       .  S
C24         C914   1.478       .  S
N35          C40   1.349       .  A
N35          C39   1.349   1_556  A
N35          H67   1.044       .  S
N36          C43   1.351       .  A
N36          C44   1.351       .  A
N37          C42   1.350       .  A
N37          C41   1.350   1_556  A
N37          H68   1.043       .  S
N38          C45   1.347       .  A
N38          C46   1.346       .  A
C39          C47   1.387       .  A
C39          C55   1.410       .  A
C40          C56   1.409       .  A
C40          C48   1.386       .  A
C41          C49   1.387       .  A
C41          C58   1.412       .  A
C42          C57   1.412       .  A
C42          C50   1.387       .  A
C43          C55   1.410       .  A
C43          C51   1.385       .  A
C44          C58   1.413       .  A
C44          C52   1.387       .  A
C45          C53   1.385       .  A
C45          C56   1.406       .  A
C46          C54   1.387       .  A
C46          C57   1.408       .  A
C47          C48   1.380   1_554  A
C47          H59   1.082       .  S
C48          H60   1.082       .  S
C49          C50   1.381   1_554  A
C49          H61   1.082       .  S
C50          H62   1.082       .  S
C51          C52   1.375       .  A
C51          H63   1.082       .  S
C52          H64   1.081       .  S
C53          C54   1.375       .  A
C53          H65   1.082       .  S
C54          H66   1.082       .  S
C55         C845   1.492       .  S
C56         C860   1.484       .  S
C57         C881   1.485       .  S
C58         C827   1.495       .  S
N69          C74   1.353   1_554  A
N69          C73   1.353       .  A
N69         H101   1.040       .  S
N70          C77   1.350       .  A
N70          C78   1.349       .  A
N71          C76   1.354   1_554  A
N71          C75   1.352       .  A
N71         H102   1.039       .  S
N72          C79   1.349       .  A
N72          C80   1.350       .  A
C73          C81   1.387       .  A
C73          C89   1.413       .  A
C74          C90   1.411       .  A
C74          C82   1.386       .  A
C75          C83   1.387       .  A
C75          C92   1.412       .  A
C76          C91   1.413       .  A
C76          C84   1.386       .  A
C77          C89   1.410       .  A
C77          C85   1.386       .  A
C78          C92   1.409       .  A
C78          C86   1.387       .  A
C79          C87   1.385       .  A
C79          C90   1.406       .  A
C80          C88   1.386       .  A
C80          C91   1.409       .  A
C81          C82   1.374   1_554  A
C81          H93   1.082       .  S
C82          H94   1.082       .  S
C83          C84   1.374   1_554  A
C83          H95   1.082       .  S
C84          H96   1.082       .  S
C85          C86   1.372       .  A
C85          H97   1.082       .  S
C86          H98   1.082       .  S
C87          C88   1.372       .  A
C87          H99   1.082       .  S
C88         H100   1.082       .  S
C89         C770   1.483       .  S
C90         C791   1.478       .  S
C91         C806   1.486       .  S
C92         C752   1.479       .  S
N103        C108   1.351   1_556  A
N103        C107   1.352       .  A
N103        H135   1.041       .  S
N104        C111   1.350       .  A
N104        C112   1.351       .  A
N105        C110   1.353   1_556  A
N105        C109   1.352       .  A
N105        H136   1.041       .  S
N106        C113   1.349       .  A
N106        C114   1.350       .  A
C107        C115   1.388       .  A
C107        C123   1.411       .  A
C108        C124   1.409       .  A
C108        C116   1.387       .  A
C109        C117   1.387       .  A
C109        C126   1.411       .  A
C110        C125   1.411       .  A
C110        C118   1.387       .  A
C111        C123   1.410       .  A
C111        C119   1.386       .  A
C112        C126   1.409       .  A
C112        C120   1.386       .  A
C113        C121   1.386       .  A
C113        C124   1.407       .  A
C114        C122   1.386       .  A
C114        C125   1.408       .  A
C115        C116   1.373   1_556  A
C115        H127   1.082       .  S
C116        H128   1.082       .  S
C117        C118   1.373   1_556  A
C117        H129   1.082       .  S
C118        H130   1.082       .  S
C119        C120   1.372       .  A
C119        H131   1.082       .  S
C120        H132   1.082       .  S
C121        C122   1.370       .  A
C121        H133   1.082       .  S
C122        H134   1.082       .  S
C123        C737   1.478       .  S
C124        C680   1.475       .  S
C125        C698   1.479       .  S
C126        C716   1.478       .  S
N137        C142   1.350       .  A
N137        C141   1.351       .  A
N137        H169   1.042       .  S
N138        C145   1.348       .  A
N138        C146   1.349       .  A
N139        C144   1.352       .  A
N139        C143   1.352       .  A
N139        H170   1.041       .  S
N140        C147   1.350       .  A
N140        C148   1.350       .  A
C141        C149   1.387       .  A
C141        C157   1.409       .  A
C142        C158   1.410       .  A
C142        C150   1.388       .  A
C143        C151   1.386       .  A
C143        C160   1.410       .  A
C144        C159   1.412       .  A
C144        C152   1.388       .  A
C145        C157   1.406       .  A
C145        C153   1.386       .  A
C146        C160   1.405       .  A
C146        C154   1.385       .  A
C147        C155   1.386       .  A
C147        C158   1.408       .  A
C148        C156   1.386       .  A
C148        C159   1.409       .  A
C149        C150   1.375       .  A
C149        H161   1.082   1_545  S
C150        H162   1.082   1_545  S
C151        C152   1.375       .  A
C151        H163   1.082       .  S
C152        H164   1.082       .  S
C153        C154   1.370       .  A
C153        H165   1.082       .  S
C154        H166   1.082       .  S
C155        C156   1.372       .  A
C155        H167   1.082       .  S
C156        H168   1.082       .  S
C157        C647   1.475       .  S
C158        C665   1.474       .  S
C159        C608   1.479       .  S
C160        C626   1.476       .  S
N171        C176   1.353       .  A
N171        C175   1.353       .  A
N171        H203   1.042       .  S
N172        C179   1.350       .  A
N172        C180   1.351   1_655  A
N173        C178   1.354       .  A
N173        C177   1.352       .  A
N173        H204   1.041       .  S
N174        C181   1.350       .  A
N174        C182   1.351   1_655  A
C175        C183   1.388       .  A
C175        C191   1.413       .  A
C176        C192   1.411       .  A
C176        C184   1.386       .  A
C177        C185   1.388       .  A
C177        C194   1.414       .  A
C178        C193   1.412       .  A
C178        C186   1.386       .  A
C179        C191   1.409       .  A
C179        C187   1.386       .  A
C180        C194   1.411       .  A
C180        C188   1.387       .  A
C181        C189   1.387       .  A
C181        C192   1.410       .  A
C182        C190   1.384       .  A
C182        C193   1.408       .  A
C183        C184   1.372       .  A
C183        H195   1.082       .  S
C184        H196   1.082       .  S
C185        C186   1.375       .  A
C185        H197   1.082       .  S
C186        H198   1.082       .  S
C187        C188   1.372   1_655  A
C187        H199   1.083       .  S
C188        H200   1.082       .  S
C189        C190   1.371   1_655  A
C189        H201   1.082       .  S
C190        H202   1.082       .  S
C191        C590   1.481       .  S
C192        C572   1.482       .  S
C193        C554   1.483       .  S
C194        C536   1.480       .  S
N205        C210   1.354       .  A
N205        C209   1.354       .  A
N205        H237   1.041       .  S
N206        C213   1.352       .  A
N206        C214   1.351       .  A
N207        C212   1.352       .  A
N207        C211   1.351       .  A
N207        H238   1.041       .  S
N208        C215   1.349       .  A
N208        C216   1.349       .  A
C209        C217   1.386       .  A
C209        C225   1.414       .  A
C210        C226   1.415       .  A
C210        C218   1.387       .  A
C211        C219   1.387       .  A
C211        C228   1.410       .  A
C212        C227   1.410       .  A
C212        C220   1.387       .  A
C213        C225   1.410       .  A
C213        C221   1.386       .  A
C214        C228   1.409       .  A
C214        C222   1.386       .  A
C215        C223   1.387       .  A
C215        C226   1.409       .  A
C216        C224   1.385       .  A
C216        C227   1.406       .  A
C217        C218   1.375       .  A
C217        H229   1.082   1_545  S
C218        H230   1.082   1_545  S
C219        C220   1.373       .  A
C219        H231   1.082       .  S
C220        H232   1.082       .  S
C221        C222   1.370       .  A
C221        H233   1.082       .  S
C222        H234   1.082       .  S
C223        C224   1.370       .  A
C223        H235   1.082       .  S
C224        H236   1.083       .  S
C225        C521   1.486       .  S
C226        C500   1.480       .  S
C227        C485   1.475       .  S
C228        C464   1.478       .  S
N239        C244   1.353       .  A
N239        C243   1.352       .  A
N239        H271   1.042       .  S
N240        C247   1.351       .  A
N240        C248   1.351   1_655  A
N241        C246   1.354       .  A
N241        C245   1.354       .  A
N241        H272   1.041       .  S
N242        C249   1.349   1_455  A
N242        C250   1.348       .  A
C243        C251   1.387       .  A
C243        C259   1.412       .  A
C244        C260   1.411       .  A
C244        C252   1.386       .  A
C245        C253   1.387       .  A
C245        C262   1.415       .  A
C246        C261   1.414       .  A
C246        C254   1.387       .  A
C247        C259   1.410       .  A
C247        C255   1.386       .  A
C248        C262   1.411       .  A
C248        C256   1.386       .  A
C249        C257   1.386       .  A
C249        C260   1.405       .  A
C250        C258   1.387       .  A
C250        C261   1.407       .  A
C251        C252   1.374       .  A
C251        H263   1.082       .  S
C252        H264   1.082       .  S
C253        C254   1.376       .  A
C253        H265   1.082       .  S
C254        H266   1.082       .  S
C255        C256   1.372   1_655  A
C255        H267   1.082       .  S
C256        H268   1.082       .  S
C257        C258   1.370   1_655  A
C257        H269   1.082       .  S
C258        H270   1.082       .  S
C259        C446   1.482       .  S
C260        C428   1.478       .  S
C261        C410   1.478       .  S
C262        C392   1.486       .  S
O273        V281   1.900       .  S
O273        C283   1.263       .  A
O274        V281   1.901       .  S
O274        C284   1.264       .  A
O275        V281   1.899       .  S
O275        C285   1.264       .  A
O276        V281   1.893       .  S
O276        C286   1.263       .  A
O277        V282   1.897       .  S
O277        C286   1.263       .  A
O278        V282   1.893       .  S
O278        C285   1.262       .  A
O279        V282   1.900       .  S
O279        C284   1.265       .  A
O280        V282   1.901       .  S
O280        C283   1.264       .  A
V281        V282   2.088       .  T
C283        C842   1.464       .  S
C284        C611   1.469       .  S
C285        C896   1.464       .  S
C286        C413   1.463       .  S
O287        V295   1.897       .  S
O287        C297   1.264       .  A
O288        V295   1.900       .  S
O288        C298   1.264       .  A
O289        V295   1.895       .  S
O289        C299   1.263       .  A
O290        V295   1.895       .  S
O290        C300   1.263       .  A
O291        V296   1.895       .  S
O291        C300   1.263       .  A
O292        V296   1.897       .  S
O292        C299   1.263       .  A
O293        V296   1.888       .  S
O293        C298   1.262       .  A
O294        V296   1.892       .  S
O294        C297   1.262       .  A
V295        V296   2.090       .  T
C297        C482   1.462       .  S
C298        C683   1.461       .  S
C299        C431   1.464       .  S
C300        C917   1.463       .  S
O301        V309   1.896       .  S
O301        C311   1.263       .  A
O302        V309   1.895       .  S
O302        C312   1.262       .  A
O303        V309   1.894       .  S
O303        C313   1.264       .  A
O304        V309   1.899       .  S
O304        C314   1.263       .  A
O305        V310   1.889       .  S
O305        C314   1.262       .  A
O306        V310   1.893       .  S
O306        C313   1.261       .  A
O307        V310   1.899       .  S
O307        C312   1.264       .  A
O308        V310   1.902       .  S
O308        C311   1.264       .  A
V309        V310   2.090       .  T
C311        C449   1.468       .  S
C312        C935   1.465       .  S
C313        C467   1.460       .  S
C314        C734   1.461       .  S
O315        V323   1.892       .  S
O315        C325   1.263       .  A
O316        V323   1.894       .  S
O316        C326   1.263       .  A
O317        V323   1.895       .  S
O317        C327   1.262       .  A
O318        V323   1.893       .  S
O318        C328   1.262       .  A
O319        V324   1.896       .  S
O319        C328   1.263       .  A
O320        V324   1.896       .  S
O320        C327   1.264       .  A
O321        V324   1.900       .  S
O321        C326   1.264       .  A
O322        V324   1.901       .  S
O322        C325   1.264       .  A
V323        V324   2.090       .  T
C325        C503   1.465       .  S
C326        C701   1.465       .  S
C327        C593   1.464       .  S
C328        C755   1.462       .  S
O329        V337   1.894       .  S
O329        C339   1.262       .  A
O330        V337   1.895       .  S
O330        C340   1.262       .  A
O331        V337   1.900       .  S
O331        C341   1.264       .  A
O332        V337   1.899       .  S
O332        C342   1.264       .  A
O333        V338   1.900       .  S
O333        C342   1.263       .  A
O334        V338   1.901       .  S
O334        C341   1.264       .  A
O335        V338   1.901       .  S
O335        C340   1.265       .  A
O336        V338   1.899       .  S
O336        C339   1.264       .  A
V337        V338   2.089       .  T
C339        C575   1.464       .  S
C340        C809   1.466       .  S
C341        C518   1.471       .  S
C342        C719   1.468       .  S
O343        V351   1.899       .  S
O343        C353   1.263       .  A
O344        V351   1.899       .  S
O344        C354   1.264       .  A
O345        V351   1.901       .  S
O345        C355   1.264       .  A
O346        V351   1.902       .  S
O346        C356   1.265       .  A
O347        V352   1.893       .  S
O347        C356   1.261       .  A
O348        V352   1.891       .  S
O348        C355   1.263       .  A
O349        V352   1.897       .  S
O349        C354   1.263       .  A
O350        V352   1.897       .  S
O350        C353   1.264       .  A
V351        V352   2.088       .  T
C353        C539   1.467       .  S
C354        C773   1.467       .  S
C355        C662   1.464       .  S
C356        C824   1.461       .  S
O357        V365   1.894       .  S
O357        C367   1.262       .  A
O358        V365   1.893       .  S
O358        C368   1.262       .  A
O359        V365   1.899       .  S
O359        C369   1.264       .  A
O360        V365   1.902       .  S
O360        C370   1.264       .  A
O361        V366   1.896       .  S
O361        C370   1.263       .  A
O362        V366   1.904       .  S
O362        C369   1.265       .  A
O363        V366   1.893       .  S
O363        C368   1.262       .  A
O364        V366   1.890       .  S
O364        C367   1.262       .  A
V365        V366   2.089       .  T
C367        C644   1.459       .  S
C368        C878   1.455       .  S
C369        C557   1.471       .  S
C370        C788   1.467       .  S
O371        V379   1.899       .  S
O371        C381   1.264       .  A
O372        V379   1.896       .  S
O372        C382   1.263       .  A
O373        V379   1.892       .  S
O373        C383   1.262       .  A
O374        V379   1.894       .  S
O374        C384   1.263       .  A
O375        V380   1.896       .  S
O375        C384   1.263       .  A
O376        V380   1.897       .  S
O376        C383   1.262       .  A
O377        V380   1.905       .  S
O377        C382   1.265       .  A
O378        V380   1.897       .  S
O378        C381   1.263       .  A
V379        V380   2.088       .  T
C381        C950   1.466       .  S
C382        C395   1.471       .  S
C383        C863   1.456       .  S
C384        C629   1.463       .  S
C385        N391   1.343       .  A
C385        C390   1.384       .  A
C385        C386   1.405       .  A
C386        C387   1.404       .  A
C386        H397   1.082       .  S
C387        C396   1.381       .  A
C387        C388   1.385       .  A
C388        N394   1.342       .  A
C388        C389   1.403       .  A
C389        C390   1.401       .  A
C389        H398   1.082       .  S
C390        C393   1.378       .  A
N391        C392   1.357       .  A
N391        H401   1.045       .  S
C392        C393   1.395       .  A
C393        H399   1.082       .  S
N394        C395   1.355       .  A
N394        H402   1.045       .  S
C395        C396   1.396       .  A
C396        H400   1.082       .  S
C403        N409   1.342       .  A
C403        C408   1.385       .  A
C403        C404   1.400       .  A
C404        C405   1.400       .  A
C404        H415   1.082       .  S
C405        C414   1.374       .  A
C405        C406   1.385       .  A
C406        N412   1.342       .  A
C406        C407   1.401       .  A
C407        C408   1.400       .  A
C407        H416   1.083       .  S
C408        C411   1.373       .  A
N409        C410   1.353       .  A
N409        H419   1.045       .  S
C410        C411   1.395       .  A
C411        H417   1.083       .  S
N412        C413   1.354       .  A
N412        H420   1.045       .  S
C413        C414   1.393       .  A
C414        H418   1.082       .  S
C421        N427   1.340       .  A
C421        C426   1.385       .  A
C421        C422   1.402       .  A
C422        C423   1.400       .  A
C422        H433   1.083       .  S
C423        C432   1.376       .  A
C423        C424   1.385       .  A
C424        N430   1.341       .  A
C424        C425   1.401       .  A
C425        C426   1.400       .  A
C425        H434   1.082       .  S
C426        C429   1.377       .  A
N427        C428   1.355       .  A
N427        H437   1.045       .  S
C428        C429   1.393       .  A
C429        H435   1.082       .  S
N430        C431   1.354       .  A
N430        H438   1.045       .  S
C431        C432   1.394       .  A
C432        H436   1.083       .  S
C439        N445   1.341       .  A
C439        C444   1.385       .  A
C439        C440   1.401       .  A
C440        C441   1.400       .  A
C440        H451   1.082       .  S
C441        C450   1.376       .  A
C441        C442   1.385       .  A
C442        N448   1.343       .  A
C442        C443   1.404       .  A
C443        C444   1.402       .  A
C443        H452   1.082       .  S
C444        C447   1.378       .  A
N445        C446   1.355       .  A
N445        H455   1.045       .  S
C446        C447   1.396       .  A
C447        H453   1.082       .  S
N448        C449   1.355       .  A
N448        H456   1.045       .  S
C449        C450   1.394       .  A
C450        H454   1.082       .  S
C457        N463   1.337       .  A
C457        C462   1.385       .  A
C457        C458   1.397       .  A
C458        C459   1.396       .  A
C458        H469   1.082       .  S
C459        C468   1.371       .  A
C459        C460   1.385       .  A
C460        N466   1.342       .  A
C460        C461   1.403       .  A
C461        C462   1.402       .  A
C461        H470   1.082       .  S
C462        C465   1.378       .  A
N463        C464   1.353       .  A
N463        H473   1.045       .  S
C464        C465   1.396       .  A
C465        H471   1.082       .  S
N466        C467   1.356       .  A
N466        H474   1.045       .  S
C467        C468   1.390       .  A
C468        H472   1.082       .  S
C475        N481   1.341       .  A
C475        C480   1.385       .  A
C475        C476   1.399       .  A
C476        C477   1.398       .  A
C476        H487   1.082       .  S
C477        C486   1.371       .  A
C477        C478   1.386       .  A
C478        N484   1.344       .  A
C478        C479   1.402       .  A
C479        C480   1.402       .  A
C479        H488   1.082       .  S
C480        C483   1.375       .  A
N481        C482   1.353       .  A
N481        H491   1.045       .  S
C482        C483   1.394       .  A
C483        H489   1.082       .  S
N484        C485   1.354       .  A
N484        H492   1.045       .  S
C485        C486   1.391       .  A
C486        H490   1.082       .  S
C493        N499   1.342       .  A
C493        C498   1.385       .  A
C493        C494   1.400       .  A
C494        C495   1.400       .  A
C494        H505   1.082       .  S
C495        C504   1.373       .  A
C495        C496   1.385       .  A
C496        N502   1.344       .  A
C496        C497   1.402       .  A
C497        C498   1.402       .  A
C497        H506   1.082   1_565  S
C498        C501   1.375   1_565  A
N499        C500   1.353   1_565  A
N499        H509   1.045       .  S
C500        C501   1.395       .  A
C501        H507   1.082       .  S
N502        C503   1.355       .  A
N502        H510   1.045       .  S
C503        C504   1.393       .  A
C504        H508   1.082       .  S
C511        N517   1.343       .  A
C511        C516   1.385       .  A
C511        C512   1.403       .  A
C512        C513   1.402       .  A
C512        H523   1.082       .  S
C513        C522   1.379       .  A
C513        C514   1.384       .  A
C514        N520   1.343   1_565  A
C514        C515   1.404       .  A
C515        C516   1.403       .  A
C515        H524   1.082   1_565  S
C516        C519   1.379       .  A
N517        C518   1.355       .  A
N517        H527   1.045       .  S
C518        C519   1.395       .  A
C519        H525   1.082       .  S
N520        C521   1.356       .  A
N520        H528   1.045       .  S
C521        C522   1.395   1_545  A
C522        H526   1.082       .  S
C529        N535   1.340       .  A
C529        C534   1.385       .  A
C529        C530   1.399       .  A
C530        C531   1.398       .  A
C530        H541   1.082       .  S
C531        C540   1.373       .  A
C531        C532   1.385       .  A
C532        N538   1.345       .  A
C532        C533   1.405       .  A
C533        C534   1.404       .  A
C533        H542   1.082       .  S
C534        C537   1.379       .  A
N535        C536   1.353       .  A
N535        H545   1.045       .  S
C536        C537   1.396       .  A
C537        H543   1.082       .  S
N538        C539   1.357       .  A
N538        H546   1.045       .  S
C539        C540   1.392       .  A
C540        H544   1.082       .  S
C547        N553   1.343       .  A
C547        C552   1.385       .  A
C547        C548   1.402       .  A
C548        C549   1.402       .  A
C548        H559   1.082       .  S
C549        C558   1.377       .  A
C549        C550   1.385       .  A
C550        N556   1.345       .  A
C550        C551   1.405       .  A
C551        C552   1.404       .  A
C551        H560   1.082       .  S
C552        C555   1.379       .  A
N553        C554   1.354       .  A
N553        H563   1.045       .  S
C554        C555   1.396       .  A
C555        H561   1.082       .  S
N556        C557   1.356       .  A
N556        H564   1.045       .  S
C557        C558   1.395       .  A
C558        H562   1.082       .  S
C565        N571   1.343       .  A
C565        C570   1.384       .  A
C565        C566   1.402       .  A
C566        C567   1.402       .  A
C566        H577   1.082       .  S
C567        C576   1.376       .  A
C567        C568   1.385       .  A
C568        N574   1.341       .  A
C568        C569   1.399       .  A
C569        C570   1.398       .  A
C569        H578   1.082       .  S
C570        C573   1.371       .  A
N571        C572   1.356       .  A
N571        H581   1.045       .  S
C572        C573   1.394       .  A
C573        H579   1.082       .  S
N574        C575   1.353       .  A
N574        H582   1.045       .  S
C575        C576   1.395       .  A
C576        H580   1.082       .  S
C583        N589   1.339       .  A
C583        C588   1.385       .  A
C583        C584   1.400       .  A
C584        C585   1.399       .  A
C584        H595   1.082       .  S
C585        C594   1.375       .  A
C585        C586   1.385       .  A
C586        N592   1.342       .  A
C586        C587   1.403       .  A
C587        C588   1.402       .  A
C587        H596   1.082       .  S
C588        C591   1.378       .  A
N589        C590   1.354       .  A
N589        H599   1.045       .  S
C590        C591   1.396       .  A
C591        H597   1.082       .  S
N592        C593   1.355       .  A
N592        H600   1.045       .  S
C593        C594   1.392       .  A
C594        H598   1.082       .  S
C601        N607   1.340       .  A
C601        C606   1.385       .  A
C601        C602   1.401       .  A
C602        C603   1.400       .  A
C602        H613   1.082       .  S
C603        C612   1.376       .  A
C603        C604   1.385       .  A
C604        N610   1.344       .  A
C604        C605   1.404       .  A
C605        C606   1.403       .  A
C605        H614   1.082       .  S
C606        C609   1.379       .  A
N607        C608   1.354       .  A
N607        H617   1.045       .  S
C608        C609   1.395       .  A
C609        H615   1.082       .  S
N610        C611   1.356       .  A
N610        H618   1.045       .  S
C611        C612   1.394       .  A
C612        H616   1.082       .  S
C619        N625   1.343       .  A
C619        C624   1.386       .  A
C619        C620   1.402       .  A
C620        C621   1.401       .  A
C620        H631   1.082       .  S
C621        C630   1.376       .  A
C621        C622   1.385       .  A
C622        N628   1.341       .  A
C622        C623   1.400       .  A
C623        C624   1.399       .  A
C623        H632   1.082       .  S
C624        C627   1.372       .  A
N625        C626   1.354       .  A
N625        H635   1.045       .  S
C626        C627   1.393       .  A
C627        H633   1.082       .  S
N628        C629   1.354       .  A
N628        H636   1.045       .  S
C629        C630   1.394       .  A
C630        H634   1.082       .  S
C637        N643   1.341       .  A
C637        C642   1.385       .  A
C637        C638   1.402       .  A
C638        C639   1.400       .  A
C638        H649   1.082       .  S
C639        C648   1.376       .  A
C639        C640   1.385       .  A
C640        N646   1.338   1_565  A
C640        C641   1.398       .  A
C641        C642   1.397       .  A
C641        H650   1.083   1_565  S
C642        C645   1.372       .  A
N643        C644   1.354       .  A
N643        H653   1.045       .  S
C644        C645   1.391       .  A
C645        H651   1.083       .  S
N646        C647   1.354       .  A
N646        H654   1.045       .  S
C647        C648   1.393   1_545  A
C648        H652   1.082       .  S
C655        N661   1.344       .  A
C655        C660   1.385       .  A
C655        C656   1.404       .  A
C656        C657   1.403       .  A
C656        H667   1.082       .  S
C657        C666   1.378       .  A
C657        C658   1.386       .  A
C658        N664   1.339   1_565  A
C658        C659   1.398       .  A
C659        C660   1.397       .  A
C659        H668   1.083   1_565  S
C660        C663   1.372       .  A
N661        C662   1.355       .  A
N661        H671   1.045       .  S
C662        C663   1.392       .  A
C663        H669   1.083       .  S
N664        C665   1.352       .  A
N664        H672   1.045       .  S
C665        C666   1.395   1_545  A
C666        H670   1.082       .  S
C673        N679   1.342       .  A
C673        C678   1.385       .  A
C673        C674   1.403       .  A
C674        C675   1.402       .  A
C674        H685   1.082       .  S
C675        C684   1.378       .  A
C675        C676   1.385       .  A
C676        N682   1.338       .  A
C676        C677   1.398       .  A
C677        C678   1.397       .  A
C677        H686   1.083       .  S
C678        C681   1.371       .  A
N679        C680   1.354       .  A
N679        H689   1.045       .  S
C680        C681   1.391       .  A
C681        H687   1.082       .  S
N682        C683   1.353       .  A
N682        H690   1.045       .  S
C683        C684   1.394       .  A
C684        H688   1.082       .  S
C691        N697   1.340       .  A
C691        C696   1.385       .  A
C691        C692   1.400       .  A
C692        C693   1.399       .  A
C692        H703   1.082       .  S
C693        C702   1.374       .  A
C693        C694   1.385       .  A
C694        N700   1.343       .  A
C694        C695   1.403       .  A
C695        C696   1.402       .  A
C695        H704   1.082       .  S
C696        C699   1.378       .  A
N697        C698   1.354       .  A
N697        H707   1.045       .  S
C698        C699   1.395       .  A
C699        H705   1.082       .  S
N700        C701   1.355       .  A
N700        H708   1.045       .  S
C701        C702   1.393       .  A
C702        H706   1.082       .  S
C709        N715   1.344       .  A
C709        C714   1.385       .  A
C709        C710   1.405       .  A
C710        C711   1.404       .  A
C710        H721   1.082       .  S
C711        C720   1.380       .  A
C711        C712   1.385       .  A
C712        N718   1.341       .  A
C712        C713   1.400       .  A
C713        C714   1.399       .  A
C713        H722   1.082       .  S
C714        C717   1.374       .  A
N715        C716   1.355       .  A
N715        H725   1.045       .  S
C716        C717   1.392       .  A
C717        H723   1.082       .  S
N718        C719   1.353       .  A
N718        H726   1.045       .  S
C719        C720   1.396       .  A
C720        H724   1.082       .  S
C727        N733   1.343       .  A
C727        C732   1.385       .  A
C727        C728   1.403       .  A
C728        C729   1.402       .  A
C728        H739   1.082       .  S
C729        C738   1.377       .  A
C729        C730   1.385       .  A
C730        N736   1.339       .  A
C730        C731   1.398       .  A
C731        C732   1.397       .  A
C731        H740   1.082       .  S
C732        C735   1.371       .  A
N733        C734   1.355       .  A
N733        H743   1.045       .  S
C734        C735   1.391       .  A
C735        H741   1.083       .  S
N736        C737   1.353       .  A
N736        H744   1.045       .  S
C737        C738   1.395       .  A
C738        H742   1.082       .  S
C745        N751   1.342       .  A
C745        C750   1.385       .  A
C745        C746   1.402       .  A
C746        C747   1.401       .  A
C746        H757   1.082       .  S
C747        C756   1.376       .  A
C747        C748   1.385       .  A
C748        N754   1.340       .  A
C748        C749   1.399       .  A
C749        C750   1.398       .  A
C749        H758   1.082       .  S
C750        C753   1.372       .  A
N751        C752   1.355       .  A
N751        H761   1.045       .  S
C752        C753   1.393       .  A
C753        H759   1.082       .  S
N754        C755   1.353       .  A
N754        H762   1.045       .  S
C755        C756   1.394       .  A
C756        H760   1.082       .  S
C763        N769   1.343       .  A
C763        C768   1.385       .  A
C763        C764   1.404       .  A
C764        C765   1.403       .  A
C764        H775   1.082       .  S
C765        C774   1.378       .  A
C765        C766   1.385       .  A
C766        N772   1.341       .  A
C766        C767   1.401       .  A
C767        C768   1.400       .  A
C767        H776   1.082       .  S
C768        C771   1.374       .  A
N769        C770   1.356       .  A
N769        H779   1.045       .  S
C770        C771   1.394       .  A
C771        H777   1.082       .  S
N772        C773   1.354       .  A
N772        H780   1.045       .  S
C773        C774   1.395       .  A
C774        H778   1.082       .  S
C781        N787   1.343       .  A
C781        C786   1.385       .  A
C781        C782   1.402       .  A
C782        C783   1.402       .  A
C782        H793   1.082       .  S
C783        C792   1.375       .  A
C783        C784   1.385       .  A
C784        N790   1.342       .  A
C784        C785   1.401       .  A
C785        C786   1.401       .  A
C785        H794   1.082       .  S
C786        C789   1.375       .  A
N787        C788   1.355       .  A
N787        H797   1.045       .  S
C788        C789   1.394       .  A
C789        H795   1.082       .  S
N790        C791   1.353       .  A
N790        H798   1.045       .  S
C791        C792   1.395       .  A
C792        H796   1.082       .  S
C799        N805   1.343       .  A
C799        C804   1.384       .  A
C799        C800   1.402       .  A
C800        C801   1.401       .  A
C800        H811   1.082       .  S
C801        C810   1.377       .  A
C801        C802   1.385       .  A
C802        N808   1.342       .  A
C802        C803   1.402       .  A
C803        C804   1.401       .  A
C803        H812   1.083       .  S
C804        C807   1.375       .  A
N805        C806   1.356       .  A
N805        H815   1.045       .  S
C806        C807   1.397       .  A
C807        H813   1.082       .  S
N808        C809   1.355       .  A
N808        H816   1.045       .  S
C809        C810   1.394       .  A
C810        H814   1.082       .  S
C817        N823   1.342       .  A
C817        C822   1.385       .  A
C817        C818   1.403       .  A
C818        C819   1.402       .  A
C818        H829   1.082       .  S
C819        C828   1.377       .  A
C819        C820   1.382       .  A
C820        N826   1.341       .  A
C820        C821   1.402       .  A
C821        C822   1.400       .  A
C821        H830   1.082       .  S
C822        C825   1.377       .  A
N823        C824   1.354       .  A
N823        H833   1.045       .  S
C824        C825   1.392       .  A
C825        H831   1.082       .  S
N826        C827   1.358       .  A
N826        H834   1.044       .  S
C827        C828   1.400       .  A
C828        H832   1.082       .  S
C835        N841   1.343       .  A
C835        C840   1.385       .  A
C835        C836   1.402       .  A
C836        C837   1.402       .  A
C836        H847   1.082       .  S
C837        C846   1.375       .  A
C837        C838   1.383       .  A
C838        N844   1.343       .  A
C838        C839   1.403       .  A
C839        C840   1.403       .  A
C839        H848   1.082       .  S
C840        C843   1.378       .  A
N841        C842   1.354       .  A
N841        H851   1.045       .  S
C842        C843   1.393       .  A
C843        H849   1.082       .  S
N844        C845   1.358       .  A
N844        H852   1.044       .  S
C845        C846   1.399       .  A
C846        H850   1.082       .  S
C853        N859   1.340       .  A
C853        C858   1.383       .  A
C853        C854   1.401       .  A
C854        C855   1.400       .  A
C854        H865   1.082       .  S
C855        C864   1.376       .  A
C855        C856   1.386       .  A
C856        N862   1.340       .  A
C856        C857   1.400       .  A
C857        C858   1.399       .  A
C857        H866   1.082       .  S
C858        C861   1.373       .  A
N859        C860   1.357       .  A
N859        H869   1.044       .  S
C860        C861   1.397       .  A
C861        H867   1.082       .  S
N862        C863   1.352       .  A
N862        H870   1.045       .  S
C863        C864   1.392       .  A
C864        H868   1.082       .  S
C871        N877   1.341       .  A
C871        C876   1.386       .  A
C871        C872   1.400       .  A
C872        C873   1.400       .  A
C872        H883   1.083       .  S
C873        C882   1.372       .  A
C873        C874   1.383       .  A
C874        N880   1.340       .  A
C874        C875   1.400       .  A
C875        C876   1.399       .  A
C875        H884   1.082       .  S
C876        C879   1.374       .  A
N877        C878   1.352       .  A
N877        H887   1.045       .  S
C878        C879   1.391       .  A
C879        H885   1.083       .  S
N880        C881   1.356       .  A
N880        H888   1.044       .  S
C881        C882   1.398       .  A
C882        H886   1.082       .  S
C889        N895   1.341       .  A
C889        C894   1.385       .  A
C889        C890   1.399       .  A
C890        C891   1.399       .  A
C890        H901   1.082       .  S
C891        C900   1.372       .  A
C891        C892   1.385       .  A
C892        N898   1.343       .  A
C892        C893   1.403       .  A
C893        C894   1.402       .  A
C893        H902   1.082       .  S
C894        C897   1.376       .  A
N895        C896   1.353       .  A
N895        H905   1.045       .  S
C896        C897   1.395       .  A
C897        H903   1.082       .  S
N898        C899   1.355       .  A
N898        H906   1.045       .  S
C899        C900   1.392       .  A
C900        H904   1.082       .  S
C907        N913   1.340       .  A
C907        C912   1.385       .  A
C907        C908   1.401       .  A
C908        C909   1.399       .  A
C908        H919   1.082       .  S
C909        C918   1.375       .  A
C909        C910   1.385       .  A
C910        N916   1.341       .  A
C910        C911   1.402       .  A
C911        C912   1.400       .  A
C911        H920   1.082       .  S
C912        C915   1.377       .  A
N913        C914   1.354       .  A
N913        H923   1.045       .  S
C914        C915   1.394       .  A
C915        H921   1.082       .  S
N916        C917   1.354       .  A
N916        H924   1.045       .  S
C917        C918   1.393       .  A
C918        H922   1.082       .  S
C925        N931   1.339       .  A
C925        C930   1.385       .  A
C925        C926   1.401       .  A
C926        C927   1.399       .  A
C926        H937   1.082       .  S
C927        C936   1.376       .  A
C927        C928   1.385       .  A
C928        N934   1.342       .  A
C928        C929   1.403       .  A
C929        C930   1.402       .  A
C929        H938   1.082       .  S
C930        C933   1.379       .  A
N931        C932   1.354       .  A
N931        H941   1.045       .  S
C932        C933   1.394       .  A
C933        H939   1.082       .  S
N934        C935   1.355       .  A
N934        H942   1.045       .  S
C935        C936   1.393       .  A
C936        H940   1.082       .  S
C943        N949   1.341       .  A
C943        C948   1.385       .  A
C943        C944   1.402       .  A
C944        C945   1.400       .  A
C944        H955   1.082       .  S
C945        C954   1.376       .  A
C945        C946   1.385       .  A
C946        N952   1.340       .  A
C946        C947   1.401       .  A
C947        C948   1.400       .  A
C947        H956   1.082       .  S
C948        C951   1.376       .  A
N949        C950   1.355       .  A
N949        H959   1.045       .  S
C950        C951   1.394       .  A
C951        H957   1.082       .  S
N952        C953   1.354       .  A
N952        H960   1.045       .  S
C953        C954   1.392       .  A
C954        H958   1.082       .  S
