geometry optimzed in LAMMPS
_audit_creation_date              2020-12-01 
_audit_creation_method            'lammps2cif' 
_symmetry_space_group_name_H-M    'P1' 
_symmetry_Int_Tables_number       1 
_symmetry_cell_setting            triclinic 
loop_ 
_symmetry_equiv_pos_as_xyz 
  x,y,z 
_cell_length_a                    50.99398624 
_cell_length_b                    50.91103911966691 
_cell_length_c                    50.88733056900457 
_cell_angle_alpha                 89.80546845059062 
_cell_angle_beta                  90.31934458180358 
_cell_angle_gamma                 89.56621882457141 
loop_ 
_atom_site_label 
_atom_site_type_symbol 
_atom_site_fract_x 
_atom_site_fract_y 
_atom_site_fract_z 
_atom_site_charge 
C1          C  0.60667348  0.69715303  0.46726562     0.80000
N2          N  0.59260417  0.67724856  0.47781205    -0.78300
C3          C  0.58569885  0.67777920  0.50362536     0.82400
N4          N  0.59300818  0.69842419  0.51888629    -0.78300
C5          C  0.60678127  0.71854635  0.50816769     0.82500
N6          N  0.61350766  0.71772396  0.48251463    -0.80000
C7          C  0.62259733  0.57525317  0.58082453     0.80000
N8          N  0.60121559  0.58461315  0.56766601    -0.78300
C9          C  0.59889998  0.61073512  0.56199556     0.82400
N10         N  0.61821386  0.62744370  0.56950648    -0.78300
C11         C  0.63969857  0.61809911  0.58255007     0.82500
N12         N  0.64168952  0.59211093  0.58805565    -0.80000
C13         C  0.48767313  0.68667812  0.58736451     0.80000
N14         N  0.50265260  0.69766639  0.60634730    -0.78300
C15         C  0.52885552  0.69341213  0.60714526     0.82400
N16         N  0.54032613  0.67820711  0.58858583    -0.78300
C17         C  0.52558282  0.66718300  0.56936185     0.82500
N18         N  0.49911885  0.67128163  0.56887944    -0.80000
C19         C  0.54084127  0.61818930  0.51431633     0.86200
C20         C  0.56165149  0.60429365  0.53118665    -0.54000
C21         C  0.57618143  0.62055787  0.54653334     0.09200
C22         C  0.56803912  0.64972708  0.54420631     0.20100
C23         C  0.52412324  0.63444563  0.53340745    -0.54700
C24         C  0.53823725  0.65037151  0.54954017     0.09300
C25         C  0.55543718  0.63989770  0.49920575    -0.54200
C26         C  0.57009277  0.65607784  0.51470074     0.09800
H27         H  0.56520342  0.58318760  0.53017586     0.14400
H28         H  0.57966072  0.66302971  0.55692530     0.00100
H29         H  0.50287639  0.63444603  0.53339422     0.14700
H30         H  0.55358122  0.64285627  0.47818947     0.14500
In31       In  0.73713880  0.86727252  0.64445449     1.36900
C32         C  0.76535487  0.83004199  0.66778730     0.77300
O33         O  0.72789034  0.87946687  0.68631445    -0.61100
O34         O  0.69808362  0.86198755  0.66332331    -0.52000
C35         C  0.76596434  0.90544239  0.62337157     0.70000
O36         O  0.77257071  0.88162046  0.62300462    -0.46900
C37         C  0.70533920  0.85102432  0.60666094     0.74700
O38         O  0.76286343  0.85272204  0.67730491    -0.58700
O39         O  0.70323805  0.87359097  0.61669628    -0.48800
O40         O  0.75585541  0.82720826  0.64501511    -0.55200
C41         C  0.70527923  0.86962953  0.68560953     0.84900
O42         O  0.74453360  0.90973393  0.63483864    -0.57100
O43         O  0.72457433  0.83748749  0.61490263    -0.60400
In44       In  0.66939411  0.83441921  0.74730897     1.36900
C45         C  0.69041107  0.86260773  0.70905868     0.77300
O46         O  0.71090418  0.82305095  0.75888904    -0.61100
O47         O  0.68803151  0.79565672  0.73777019    -0.52000
C48         C  0.65282362  0.86047211  0.78977221     0.70000
O49         O  0.64789648  0.86815493  0.76669859    -0.46900
C50         C  0.63047611  0.80426783  0.73083738     0.74700
O51         O  0.70088526  0.86094602  0.73147530    -0.58700
O52         O  0.64190239  0.80053183  0.75264767    -0.48800
O53         O  0.66767596  0.85324912  0.70748261    -0.55200
C54         C  0.71012684  0.80140264  0.74699993     0.84900
O55         O  0.66593118  0.83947022  0.79091148    -0.57100
O56         O  0.63751070  0.82468997  0.71875917    -0.60400
In57       In  0.77509224  0.76674086  0.71588617     1.36900
C58         C  0.73355899  0.78614031  0.74039981     0.77300
O59         O  0.77982728  0.80993981  0.70776102    -0.61100
O60         O  0.77312655  0.78456334  0.67552147    -0.52000
C61         C  0.81624689  0.74945884  0.74396800     0.70000
O62         O  0.79326261  0.74146707  0.74751854    -0.46900
C63         C  0.76247235  0.72686972  0.68557279     0.74700
O64         O  0.75645272  0.79375076  0.74564132    -0.58700
O65         O  0.78205378  0.74119500  0.68083071    -0.48800
O66         O  0.73236568  0.76647161  0.72555587    -0.55200
C67         C  0.77434393  0.80777354  0.68370777     0.84900
O68         O  0.81793373  0.76695992  0.72653597    -0.57100
O69         O  0.75065559  0.73206797  0.70670648    -0.60400
C70         C  0.11886359  0.58410358  0.82786380     0.80000
N71         N  0.13553887  0.60221511  0.81813275    -0.78300
C72         C  0.13165854  0.62807827  0.82302253     0.82400
N73         N  0.11098991  0.63601994  0.83774963    -0.78300
C74         C  0.09430048  0.61793917  0.84776779     0.82500
N75         N  0.09828846  0.59200830  0.84270550    -0.80000
C76         C  0.09750149  0.69495520  0.95385955     0.80000
N77         N  0.08255683  0.67747299  0.94062692    -0.78300
C78         C  0.08361501  0.67618938  0.91392453     0.82400
N79         N  0.10032111  0.69220132  0.90061113    -0.78300
C80         C  0.11535662  0.70995573  0.91374973     0.82500
N81         N  0.11333558  0.71126047  0.94026525    -0.80000
C82         C  0.98601746  0.69383662  0.82281417     0.80000
N83         N  0.00165807  0.70924637  0.80807396    -0.78300
C84         C  0.02798767  0.70803835  0.81088947     0.82400
N85         N  0.03901052  0.69128595  0.82869174    -0.78300
C86         C  0.02346947  0.67565238  0.84360693     0.82500
N87         N  0.99688185  0.67699993  0.84058187    -0.80000
C88         C  0.03546142  0.62124589  0.89459846     0.86200
C89         C  0.05157427  0.63932893  0.91263402    -0.54000
C90         C  0.06652959  0.65740172  0.89977975     0.09200
C91         C  0.06471602  0.65509990  0.86959806     0.20100
C92         C  0.02023127  0.63949625  0.87607463    -0.54700
C93         C  0.03520176  0.65712233  0.86290227     0.09300
C94         C  0.05718575  0.60866425  0.87783835    -0.54200
C95         C  0.07213354  0.62623182  0.86433322     0.09800
H96         H  0.05213240  0.63711866  0.93412375     0.14400
H97         H  0.07697876  0.66945552  0.85889424     0.00100
H98         H  0.99916500  0.63819320  0.87347679     0.14700
H99         H  0.06144568  0.58771377  0.87785109     0.14500
In100      In  0.25748926  0.85972009  0.77779369     1.36900
C101        C  0.28413511  0.82707934  0.74716456     0.77300
O102        O  0.25894007  0.83138183  0.81202026    -0.61100
O103        O  0.22387642  0.85258825  0.80472574    -0.52000
C104        C  0.28050019  0.90261414  0.79677392     0.70000
O105        O  0.29315446  0.88215532  0.79088521    -0.46900
C106        C  0.22095289  0.86372715  0.74059291     0.74700
O107        O  0.27958082  0.85056372  0.74072433    -0.58700
O108        O  0.21978946  0.84788280  0.75955536    -0.48800
O109        O  0.27852660  0.82143260  0.77059366    -0.55200
C110        C  0.23522524  0.83499581  0.81820185     0.84900
O111        O  0.25607925  0.90074669  0.79380659    -0.57100
O112        O  0.23968470  0.87974126  0.74174442    -0.60400
In113      In  0.28367617  0.76944336  0.69228053     1.36900
C114        C  0.24456082  0.79560409  0.66939213     0.77300
O115        O  0.25325180  0.73886779  0.69777315    -0.61100
O116        O  0.27952505  0.74648214  0.72953422    -0.52000
C117        C  0.32182780  0.74574964  0.66470985     0.70000
O118        O  0.32639450  0.76174216  0.68290664    -0.46900
C119        C  0.29020237  0.80686187  0.72767876     0.74700
O120        O  0.26781019  0.80394907  0.66880054    -0.58700
O121        O  0.29021650  0.81168918  0.70332020    -0.48800
O122        O  0.24219329  0.77264200  0.67814937    -0.55200
C123        C  0.25951206  0.73453336  0.72137046     0.84900
O124        O  0.29789176  0.74289840  0.65995491    -0.57100
O125        O  0.29101309  0.78281820  0.73365090    -0.60400
In126      In  0.18061173  0.84339074  0.67419431     1.36900
C127        C  0.20394421  0.86038638  0.71765563     0.77300
O128        O  0.14242364  0.84370041  0.69611037    -0.61100
O129        O  0.15561822  0.80792558  0.67886816    -0.52000
C130        C  0.16523147  0.87077636  0.63211803     0.70000
O131        O  0.16186518  0.87913779  0.65514590    -0.46900
C132        C  0.22159589  0.81256768  0.66547487     0.74700
O133        O  0.20638384  0.87261125  0.69616397    -0.58700
O134        O  0.19857587  0.80382648  0.66713144    -0.48800
O135        O  0.18776376  0.84200052  0.71714055    -0.55200
C136        C  0.13955060  0.81917848  0.69398374     0.84900
O137        O  0.17591326  0.84847993  0.63075199    -0.57100
O138        O  0.22327164  0.83725926  0.66477885    -0.60400
C139        C  0.49961784  0.92906270  0.08503375     0.80000
N140        N  0.51560763  0.91363128  0.09970616    -0.78300
C141        C  0.54189094  0.91579393  0.09806771     0.82400
N142        N  0.55249199  0.93398235  0.08162426    -0.78300
C143        C  0.53652381  0.94962080  0.06649946     0.82500
N144        N  0.50996904  0.94712585  0.06841098    -0.80000
C145        C  0.61177106  0.05099679  0.10221730     0.80000
N146        N  0.59538315  0.04057193  0.08406907    -0.78300
C147        C  0.59718010  0.01484668  0.07714360     0.82400
N148        N  0.61540217  0.99907714  0.08920588    -0.78300
C149        C  0.63172746  0.00941562  0.10775487     0.82500
N150        N  0.63003900  0.03526696  0.11375142    -0.80000
C151        C  0.61922646  0.93562636  0.96776789     0.80000
N152        N  0.63336477  0.91928798  0.98357413    -0.78300
C153        C  0.63209470  0.92134960  0.01003403     0.82400
N154        N  0.61614754  0.93968384  0.02102931    -0.78300
C155        C  0.60159458  0.95610059  0.00553459     0.82500
N156        N  0.60325702  0.95405546  0.97881399    -0.80000
C157        C  0.54830529  0.00854142  0.01951193     0.86200
C158        C  0.56472268  0.02170497  0.04094446    -0.54000
C159        C  0.58007232  0.00504838  0.05560422     0.09200
C160        C  0.57741752  0.97605102  0.04758451     0.20100
C161        C  0.56785933  0.99203294  0.00334182    -0.54700
C162        C  0.58319608  0.97516808  0.01779191     0.09300
C163        C  0.53274503  0.98693533  0.03408245    -0.54200
C164        C  0.54783244  0.97044014  0.04942332     0.09800
H165        H  0.56405096  0.04279654  0.04413883     0.14400
H166        H  0.58979540  0.96247774  0.05953727     0.00100
H167        H  0.56876998  0.99299501  0.98204532     0.14700
H168        H  0.51197946  0.98382677  0.03160880     0.14500
In169      In  0.78690233  0.86201757  0.23296593     1.36900
C170        C  0.74700397  0.83627824  0.25424448     0.77300
O171        O  0.76187739  0.89857660  0.23267650    -0.61100
O172        O  0.78029982  0.88682979  0.19716097    -0.52000
C173        C  0.82896032  0.87940227  0.25891705     0.70000
O174        O  0.80604053  0.88146370  0.26772701    -0.46900
C175        C  0.79389684  0.82337735  0.19927600     0.74700
O176        O  0.77048245  0.83029805  0.25960739    -0.58700
O177        O  0.79153053  0.84698088  0.19204444    -0.48800
O178        O  0.74420215  0.85691730  0.24090514    -0.55200
C179        C  0.76427863  0.90217325  0.20823762     0.84900
O180        O  0.83018531  0.86831779  0.23694954    -0.57100
O181        O  0.79619627  0.81989855  0.22371202    -0.60400
In182      In  0.68656744  0.78415710  0.25237105     1.36900
C183        C  0.72482475  0.81878095  0.25880024     0.77300
O184        O  0.67414272  0.78029170  0.29443338    -0.61100
O185        O  0.66839546  0.74764904  0.26975256    -0.52000
C186        C  0.64787913  0.80927493  0.22759230     0.70000
O187        O  0.65919200  0.81863685  0.24760046    -0.46900
C188        C  0.71392758  0.76162650  0.21463643     0.74700
O189        O  0.70198715  0.82510194  0.25165757    -0.58700
O190        O  0.72120526  0.76021555  0.23833342    -0.48800
O191        O  0.72746059  0.79520325  0.26607433    -0.55200
C192        C  0.66566689  0.75726546  0.29230037     0.84900
O193        O  0.65480370  0.78616584  0.22183159    -0.57100
O194        O  0.69139056  0.77115881  0.21099917    -0.60400
In195      In  0.76486666  0.76505593  0.15378741     1.36900
C196        C  0.78900901  0.80172142  0.18129924     0.77300
O197        O  0.72777067  0.77431669  0.13160951    -0.61100
O198        O  0.76228248  0.79504338  0.12149536    -0.52000
C199        C  0.78972158  0.72434449  0.13211711     0.70000
O200        O  0.79966672  0.74677698  0.13357375    -0.46900
C201        C  0.73161099  0.75744405  0.19261756     0.74700
O202        O  0.78868596  0.77809101  0.18874442    -0.58700
O203        O  0.72429930  0.76203199  0.16936548    -0.48800
O204        O  0.78032562  0.80575752  0.15846151    -0.55200
C205        C  0.73788150  0.79249457  0.11826459     0.84900
O206        O  0.76705574  0.72276064  0.14145650    -0.57100
O207        O  0.75588482  0.75339439  0.19557254    -0.60400
C208        C  0.88457232  0.19906154  0.46548311     0.80000
N209        N  0.89878049  0.17926477  0.47668489    -0.78300
C210        C  0.89796254  0.17507459  0.50316495     0.82400
N211        N  0.88286920  0.19095017  0.51839359    -0.78300
C212        C  0.86891744  0.21089718  0.50716406     0.82500
N213        N  0.86969656  0.21472842  0.48088211    -0.80000
C214        C  0.85920194  0.06402199  0.56769736     0.80000
N215        N  0.84289437  0.07908122  0.58225600    -0.78300
C216        C  0.84650910  0.10526235  0.58395917     0.82400
N217        N  0.86655678  0.11671634  0.57094483    -0.78300
C218        C  0.88310056  0.10189482  0.55620359     0.82500
N219        N  0.87939377  0.07537137  0.55459808    -0.80000
C220        C  0.98388081  0.17139942  0.60608421     0.80000
N221        N  0.96769394  0.18690959  0.62010324    -0.78300
C222        C  0.94217567  0.19024265  0.61325466     0.82400
N223        N  0.93243575  0.17678841  0.59211405    -0.78300
C224        C  0.94858380  0.16027774  0.57832926     0.82500
N225        N  0.97430753  0.15821953  0.58523587    -0.80000
C226        C  0.94528662  0.11728248  0.51654084     0.86200
C227        C  0.92266622  0.10078969  0.52758539    -0.54000
C228        C  0.90528396  0.11460883  0.54259968     0.09200
C229        C  0.91137941  0.14435345  0.54414981     0.20100
C230        C  0.93038599  0.13847666  0.50073836    -0.54700
C231        C  0.91322922  0.15319457  0.51510552     0.09300
C232        C  0.95709123  0.13143092  0.54013022    -0.54200
C233        C  0.93967103  0.14561838  0.55475285     0.09800
H234        H  0.92019359  0.08005957  0.52341301     0.14400
H235        H  0.89714396  0.15589413  0.55593193     0.00100
H236        H  0.93261248  0.14114060  0.47971170     0.14700
H237        H  0.97790934  0.13016453  0.54471918     0.14500
In238      In  0.78912685  0.32779943  0.74454762     1.36900
C239        C  0.75295323  0.29095122  0.74673119     0.77300
O240        O  0.79153573  0.33129982  0.78834243    -0.61100
O241        O  0.80308989  0.36387644  0.76552567    -0.52000
C242        C  0.83431297  0.30770304  0.72792985     0.70000
O243        O  0.81827015  0.29478062  0.74157086    -0.46900
C244        C  0.76442661  0.34979634  0.70382009     0.74700
O245        O  0.77646040  0.28600814  0.74098283    -0.58700
O246        O  0.75713917  0.35354694  0.72708985    -0.48800
O247        O  0.74856026  0.31404388  0.75445990    -0.55200
C248        C  0.80002306  0.35444535  0.78817264     0.84900
O249        O  0.82824113  0.33164523  0.72512689    -0.57100
O250        O  0.78568146  0.33738830  0.70166616    -0.60400
In251      In  0.71544491  0.35100152  0.64032962     1.36900
C252        C  0.69282824  0.31090349  0.66494087     0.77300
O253        O  0.72226742  0.32367357  0.60618842    -0.61100
O254        O  0.75291783  0.34940145  0.61776222    -0.52000
C255        C  0.68969030  0.39394742  0.62230935     0.70000
O256        O  0.68103276  0.37106941  0.61904748    -0.46900
C257        C  0.74777794  0.35536106  0.68101049     0.74700
O258        O  0.69153178  0.33409654  0.67339335    -0.58700
O259        O  0.75569967  0.35166445  0.65795899    -0.48800
O260        O  0.70209877  0.30881221  0.64215866    -0.55200
C261        C  0.74594466  0.33033228  0.60365807     0.84900
O262        O  0.71111346  0.39441877  0.63452955    -0.57100
O263        O  0.72359411  0.36023462  0.68293155    -0.60400
In264      In  0.69386331  0.24780744  0.71516786     1.36900
C265        C  0.73189136  0.27285181  0.74021450     0.77300
O266        O  0.71901174  0.21139224  0.71510237    -0.61100
O267        O  0.70209382  0.22469830  0.67897434    -0.52000
C268        C  0.65127974  0.23026623  0.74001577     0.70000
O269        O  0.67423818  0.22619036  0.74821042    -0.46900
C270        C  0.68846617  0.28804192  0.68196590     0.74700
O271        O  0.70805690  0.27803620  0.74420730    -0.58700
O272        O  0.69159445  0.26474674  0.67416487    -0.48800
O273        O  0.73602665  0.25295825  0.72629216    -0.55200
C274        C  0.71792665  0.20922640  0.69041945     0.84900
O275        O  0.65028333  0.24248321  0.71851829    -0.57100
O276        O  0.68512723  0.29033154  0.70637278    -0.60400
C277        C  0.37555431  0.21077152  0.94823578     0.80000
N278        N  0.38772426  0.18958934  0.93770227    -0.78300
C279        C  0.38819884  0.18618395  0.91120692     0.82400
N280        N  0.37618651  0.20428311  0.89522862    -0.78300
C281        C  0.36388391  0.22560099  0.90586493     0.82500
N282        N  0.36373874  0.22868055  0.93230179    -0.80000
C283        C  0.35169780  0.07925439  0.83859570     0.80000
N284        N  0.33395452  0.09569621  0.82711008    -0.78300
C285        C  0.33647035  0.12210323  0.82940754     0.82400
N286        N  0.35690581  0.13206544  0.84329561    -0.78300
C287        C  0.37463054  0.11571813  0.85509293     0.82500
N288        N  0.37192280  0.08925713  0.85271669    -0.80000
C289        C  0.47762431  0.19231636  0.81882996     0.80000
N290        N  0.46804555  0.17826272  0.83918481    -0.78300
C291        C  0.44199132  0.17294616  0.84048899     0.82400
N292        N  0.42554872  0.18141227  0.82085408    -0.78300
C293        C  0.43530408  0.19534622  0.80019549     0.82500
N294        N  0.46119717  0.20085361  0.79970889    -0.80000
C295        C  0.43468890  0.12700289  0.90015352     0.86200
C296        C  0.44843969  0.14239885  0.87832711    -0.54000
C297        C  0.43216274  0.15736201  0.86288386     0.09200
C298        C  0.40326041  0.15614349  0.87088940     0.20100
C299        C  0.41859280  0.14761836  0.91547380    -0.54700
C300        C  0.40297397  0.16356860  0.90017600     0.09300
C301        C  0.41268573  0.11162470  0.88618390    -0.54200
C302        C  0.39661292  0.12668955  0.87049435     0.09800
H303        H  0.46944893  0.14111626  0.87519012     0.14400
H304        H  0.39015641  0.16857142  0.85846393     0.00100
H305        H  0.41895157  0.14911239  0.93668211     0.14700
H306        H  0.40932209  0.09082160  0.88926931     0.14500
In307      In  0.19274023  0.27014025  0.69127492     1.36900
C308        C  0.23379723  0.29085116  0.66711585     0.77300
O309        O  0.18522050  0.31373589  0.69589242    -0.61100
O310        O  0.19035484  0.29028832  0.73009123    -0.52000
C311        C  0.15211055  0.24790276  0.66617295     0.70000
O312        O  0.17534717  0.24610174  0.65808743    -0.46900
C313        C  0.21190996  0.23298254  0.72284469     0.74700
O314        O  0.21061998  0.29736058  0.66081547    -0.58700
O315        O  0.19132057  0.24576693  0.72816027    -0.48800
O316        O  0.23552449  0.27180098  0.68286785    -0.55200
C317        C  0.18888355  0.31298785  0.72039255     0.84900
O318        O  0.14975183  0.26201331  0.68624828    -0.57100
O319        O  0.22143440  0.23817845  0.70060731    -0.60400
In320      In  0.29710674  0.33980944  0.66016047     1.36900
C321        C  0.27414054  0.36879308  0.69674111     0.77300
O322        O  0.25636850  0.32709371  0.64684666    -0.61100
O323        O  0.27865536  0.30180682  0.67158498    -0.52000
C324        C  0.31717437  0.36516865  0.61887010     0.70000
O325        O  0.32263155  0.37135785  0.64220675    -0.46900
C326        C  0.33600761  0.30818481  0.67524059     0.74700
O327        O  0.26495915  0.36694885  0.67380768    -0.58700
O328        O  0.32435588  0.30560821  0.65342571    -0.48800
O329        O  0.29693571  0.35950559  0.69968399    -0.55200
C330        C  0.25697818  0.30642499  0.66060435     0.84900
O331        O  0.30073703  0.34694131  0.61684755    -0.57100
O332        O  0.32864988  0.32784158  0.68844733    -0.60400
In333      In  0.22452660  0.37282128  0.75918122     1.36900
C334        C  0.19635228  0.33599500  0.73569990     0.77300
O335        O  0.23353207  0.38080624  0.71660808    -0.61100
O336        O  0.26539210  0.37300406  0.74252807    -0.52000
C337        C  0.19810133  0.41270067  0.78075480     0.70000
O338        O  0.19367534  0.38910623  0.78607019    -0.46900
C339        C  0.25417291  0.34896084  0.79508986     0.74700
O340        O  0.19895087  0.35850591  0.72572921    -0.58700
O341        O  0.25984218  0.37147372  0.78627767    -0.48800
O342        O  0.20509234  0.33364668  0.75874880    -0.55200
C343        C  0.25767401  0.37591810  0.71914098     0.84900
O344        O  0.21600911  0.41590746  0.76420196    -0.57100
O345        O  0.23272811  0.33993189  0.78684581    -0.60400
C346        C  0.13547356  0.04149654  0.33101111     0.80000
N347        N  0.11488799  0.03286607  0.34523912    -0.78300
C348        C  0.10899569  0.00684714  0.34575915     0.82400
N349        N  0.12379179  0.98955465  0.33166101    -0.78300
C350        C  0.14428964  0.99843458  0.31718086     0.82500
N351        N  0.14991130  0.02432799  0.31693887    -0.80000
C352        C  0.00379138  0.92505332  0.32983748     0.80000
N353        N  0.01914243  0.91164888  0.31298250    -0.78300
C354        C  0.04543986  0.91381842  0.31376414     0.82400
N355        N  0.05692291  0.93026638  0.33140317    -0.78300
C356        C  0.04163254  0.94447452  0.34820222     0.82500
N357        N  0.01502866  0.94162404  0.34738848    -0.80000
C358        C  0.12917943  0.93485117  0.45068338     0.80000
N359        N  0.10989585  0.94937697  0.43910799    -0.78300
C360        C  0.10924341  0.95221636  0.41249497     0.82400
N361        N  0.12821148  0.94075429  0.39769506    -0.78300
C362        C  0.14742563  0.92592476  0.40910265     0.82500
N363        N  0.14751258  0.92289584  0.43558892    -0.80000
C364        C  0.05388180  0.00143263  0.39655589     0.86200
C365        C  0.03831084  0.98069887  0.38105149    -0.54000
C366        C  0.05342744  0.96409124  0.36627501     0.09200
C367        C  0.08317741  0.96864181  0.36976789     0.20100
C368        C  0.07209906  0.98406117  0.41355502    -0.54700
C369        C  0.08804033  0.96762413  0.39971305     0.09300
C370        C  0.07167619  0.01448521  0.37615716    -0.54200
C371        C  0.08743180  0.99757288  0.36264096     0.09800
H372        H  0.01743614  0.97779833  0.38268550     0.14400
H373        H  0.09567151  0.95487602  0.35844470     0.00100
H374        H  0.07293245  0.98542167  0.43485251     0.14700
H375        H  0.07262345  0.03567620  0.37373074     0.14500
In376      In  0.18040913  0.77896354  0.16257018     1.36900
C377        C  0.20736509  0.76622270  0.20562753     0.77300
O378        O  0.22130127  0.78532436  0.14819554    -0.61100
O379        O  0.19624913  0.81862107  0.15209102    -0.52000
C380        C  0.16302884  0.74687574  0.12549445     0.70000
O381        O  0.16604708  0.73946398  0.14897373    -0.46900
C382        C  0.13913212  0.80220566  0.18295444     0.74700
O383        O  0.20911050  0.75295336  0.18476089    -0.58700
O384        O  0.15130598  0.81185522  0.16370508    -0.48800
O385        O  0.19048612  0.78430957  0.20499207    -0.55200
C386        C  0.21913844  0.80997930  0.14839802     0.84900
O387        O  0.16896896  0.77043397  0.12118035    -0.57100
O388        O  0.14570080  0.77901472  0.18907514    -0.60400
In389      In  0.26473617  0.76793982  0.26213231     1.36900
C390        C  0.28747886  0.79942542  0.22784678     0.77300
O391        O  0.24589569  0.74928387  0.22670852    -0.61100
O392        O  0.22407677  0.77777804  0.24784075    -0.52000
C393        C  0.28690385  0.72327770  0.27901283     0.70000
O394        O  0.30019355  0.74301017  0.27250861    -0.46900
C395        C  0.25144366  0.79715023  0.30346556     0.74700
O396        O  0.28489982  0.77528581  0.22348161    -0.58700
O397        O  0.23607995  0.78065231  0.29318187    -0.48800
O398        O  0.28242525  0.80638319  0.25094638    -0.55200
C399        C  0.22565657  0.76351477  0.22771611     0.84900
O400        O  0.26247103  0.72695678  0.27825158    -0.57100
O401        O  0.27431358  0.79687302  0.29403954    -0.60400
In402      In  0.28137696  0.85406368  0.16969692     1.36900
C403        C  0.24204175  0.82690735  0.14992037     0.77300
O404        O  0.29042033  0.81257852  0.18286524    -0.61100
O405        O  0.28931492  0.84291381  0.21143554    -0.52000
C406        C  0.32368459  0.87012025  0.14371328     0.70000
O407        O  0.30247797  0.86527101  0.13204841    -0.46900
C408        C  0.25570160  0.89145372  0.19532892     0.74700
O409        O  0.26492789  0.81754535  0.15180023    -0.58700
O410        O  0.27205396  0.87610647  0.20593200    -0.48800
O411        O  0.24008467  0.85116607  0.15438392    -0.55200
C412        C  0.29068803  0.81867842  0.20687592     0.84900
O413        O  0.32270370  0.86749056  0.16815097    -0.57100
O414        O  0.25411191  0.88956713  0.17059782    -0.60400
C415        C  0.97116584  0.42846188  0.08437501     0.80000
N416        N  0.96102331  0.44529426  0.06614355    -0.78300
C417        C  0.93584022  0.44244801  0.05747638     0.82400
N418        N  0.92094509  0.42246658  0.06709277    -0.78300
C419        C  0.93130259  0.40528398  0.08503802     0.82500
N420        N  0.95623225  0.40866951  0.09363344    -0.80000
C421        C  0.84219545  0.42853745  0.96376512     0.80000
N422        N  0.83103787  0.41163886  0.98078768    -0.78300
C423        C  0.83715425  0.41211634  0.00662919     0.82400
N424        N  0.85530679  0.42940350  0.01575943    -0.78300
C425        C  0.86701064  0.44634506  0.99869541     0.82500
N426        N  0.86023480  0.44583501  0.97276292    -0.80000
C427        C  0.86311510  0.55428245  0.07617901     0.80000
N428        N  0.87799928  0.54106151  0.05844710    -0.78300
C429        C  0.87916990  0.51423485  0.05905370     0.82400
N430        N  0.86522978  0.50091319  0.07732911    -0.78300
C431        C  0.85036776  0.51418125  0.09495661     0.82500
N432        N  0.84925709  0.54072951  0.09423218    -0.80000
C433        C  0.92506525  0.49449991  0.00296598     0.86200
C434        C  0.90405181  0.47699738  0.99019200    -0.54000
C435        C  0.88807507  0.46429919  0.00759023     0.09200
C436        C  0.89544801  0.46937537  0.03656947     0.20100
C437        C  0.91031195  0.51234287  0.02198968    -0.54700
C438        C  0.89488687  0.49961558  0.03950745     0.09300
C439        C  0.93994380  0.47431324  0.02034643    -0.54200
C440        C  0.92470901  0.46164706  0.03836551     0.09800
H441        H  0.90280454  0.47378970  0.96913878     0.14400
H442        H  0.88289846  0.45889574  0.05088829     0.00100
H443        H  0.91205331  0.53349877  0.02147769     0.14700
H444        H  0.96038823  0.46913427  0.01770331     0.14500
In445      In  0.71335765  0.26410481  0.15566274     1.36900
C446        C  0.69768719  0.30655438  0.18135618     0.77300
O447        O  0.72484565  0.25494953  0.19745231    -0.61100
O448        O  0.75472131  0.25685502  0.16851917    -0.52000
C449        C  0.68209073  0.22528981  0.14043893     0.70000
O450        O  0.67550107  0.24905791  0.13837341    -0.46900
C451        C  0.73888517  0.28206221  0.11455094     0.74700
O452        O  0.69202170  0.28375140  0.18907449    -0.58700
O453        O  0.74818478  0.26424042  0.12924513    -0.48800
O454        O  0.70801426  0.30764948  0.15901654    -0.55200
C455        C  0.74903680  0.25537443  0.19252559     0.84900
O456        O  0.70431786  0.22160161  0.15060345    -0.57100
O457        O  0.71539906  0.28854402  0.11911530    -0.60400
In458      In  0.70809453  0.36781680  0.23170371     1.36900
C459        C  0.74743305  0.33885425  0.25127042     0.77300
O460        O  0.69222040  0.32764945  0.22279573    -0.61100
O461        O  0.70457885  0.35163059  0.19102463    -0.52000
C462        C  0.66672176  0.38812711  0.25638530     0.70000
O463        O  0.68867786  0.38543136  0.26764276    -0.46900
C464        C  0.73239658  0.40687058  0.20834660     0.74700
O465        O  0.72396633  0.33520370  0.25810122    -0.58700
O466        O  0.71456859  0.39380684  0.19725749    -0.48800
O467        O  0.75087620  0.35902934  0.23750080    -0.55200
C468        C  0.69686796  0.32943031  0.19856510     0.84900
O469        O  0.66619347  0.38087973  0.23283477    -0.57100
O470        O  0.73565004  0.40197837  0.23252666    -0.60400
In471      In  0.80187776  0.27947032  0.24740845     1.36900
C472        C  0.76885333  0.25877909  0.21295809     0.77300
O473        O  0.76434712  0.29660105  0.26396340    -0.61100
O474        O  0.79079042  0.32223423  0.24491446    -0.52000
C475        C  0.82067215  0.25407368  0.28952182     0.70000
O476        O  0.81116452  0.24234816  0.27002294    -0.46900
C477        C  0.84208733  0.29337717  0.21716793     0.74700
O478        O  0.76326776  0.26070147  0.23693527    -0.58700
O479        O  0.83063941  0.30914800  0.23253169    -0.48800
O480        O  0.79216311  0.26415636  0.20739930    -0.55200
C481        C  0.76838199  0.31919576  0.25474844     0.84900
O482        O  0.82068096  0.27871901  0.28759153    -0.57100
O483        O  0.83439843  0.26992585  0.21909713    -0.60400
C484        C  0.38004566  0.41533072  0.44035731     0.80000
N485        N  0.36485441  0.40062341  0.42428503    -0.78300
C486        C  0.36399314  0.40524037  0.39808396     0.82400
N487        N  0.37813788  0.42514763  0.38765267    -0.78300
C488        C  0.39322045  0.44036099  0.40346463     0.82500
N489        N  0.39423888  0.43527469  0.42983083    -0.80000
C490        C  0.34572663  0.54251120  0.33501746     0.80000
N491        N  0.36898288  0.53385952  0.34503584    -0.78300
C492        C  0.37295257  0.50778266  0.34999063     0.82400
N493        N  0.35353078  0.49039067  0.34469206    -0.78300
C494        C  0.33015604  0.49910215  0.33492870     0.82500
N495        N  0.32642008  0.52507847  0.33010816    -0.80000
C496        C  0.48745574  0.44255448  0.31053556     0.80000
N497        N  0.47603099  0.45631651  0.33034933    -0.78300
C498        C  0.44934881  0.45678087  0.33294697     0.82400
N499        N  0.43421782  0.44371389  0.31527785    -0.81500
C500        C  0.44574873  0.43009083  0.29548074     0.82500
N501        N  0.47210386  0.42937393  0.29346342    -0.80000
C502        C  0.43561204  0.50167447  0.39183277     0.86200
C503        C  0.45122103  0.48816073  0.37012466    -0.54000
C504        C  0.43702327  0.47163146  0.35475607     0.09200
C505        C  0.40777111  0.47007273  0.36260810     0.20100
C506        C  0.41210634  0.51500842  0.37800240    -0.54700
C507        C  0.39771576  0.49874985  0.36242669     0.09300
C508        C  0.42213177  0.47948727  0.40723223    -0.54200
C509        C  0.40803117  0.46256734  0.39208054     0.09800
H510        H  0.47204395  0.49153440  0.36727726     0.14400
H511        H  0.39600243  0.45670693  0.35010631     0.00100
H512        H  0.40547783  0.53477380  0.38234162     0.14700
H513        H  0.42305276  0.47781875  0.42853285     0.14500
In514      In  0.22483579  0.25940449  0.25738676     1.36900
C515        C  0.19518609  0.29795773  0.23853152     0.77300
O516        O  0.22793727  0.28530088  0.29261385    -0.61100
O517        O  0.26156755  0.26293154  0.28147830    -0.52000
C518        C  0.20371789  0.21479693  0.27387103     0.70000
O519        O  0.19096844  0.23586902  0.27166058    -0.46900
C520        C  0.25517097  0.26244167  0.21546059     0.74700
O521        O  0.19776601  0.27641907  0.22666350    -0.58700
O522        O  0.26350976  0.26651985  0.23835984    -0.48800
O523        O  0.20495442  0.29851504  0.26131144    -0.55200
C524        C  0.25208463  0.28064273  0.29595489     0.84900
O525        O  0.22730607  0.21647424  0.26713800    -0.57100
O526        O  0.23228073  0.25338492  0.21413898    -0.60400
In527      In  0.28871738  0.30376493  0.15666625     1.36900
C528        C  0.24696776  0.33570550  0.15810590     0.77300
O529        O  0.29959608  0.30185883  0.11394709    -0.61100
O530        O  0.30900127  0.26926894  0.13805933    -0.52000
C531        C  0.32727890  0.33121373  0.17722785     0.70000
O532        O  0.31956381  0.33504784  0.15388440    -0.46900
C533        C  0.26917579  0.27231480  0.19261893     0.74700
O534        O  0.26947796  0.34273529  0.16517893    -0.58700
O535        O  0.25828160  0.27524898  0.17045113    -0.48800
O536        O  0.24636789  0.31381480  0.14661245    -0.55200
C537        C  0.31048829  0.27962201  0.11566936     0.84900
O538        O  0.31603649  0.31285039  0.18926763    -0.57100
O539        O  0.29148833  0.28255974  0.19490592    -0.60400
In540      In  0.18407306  0.36605277  0.19761243     1.36900
C541        C  0.22330752  0.34944451  0.16730426     0.77300
O542        O  0.21268985  0.39583765  0.21203873    -0.61100
O543        O  0.17854066  0.38936187  0.23483805    -0.52000
C544        C  0.14072806  0.38498213  0.17366389     0.70000
O545        O  0.16348442  0.39240427  0.16784533    -0.46900
C546        C  0.18602151  0.32177780  0.22527085     0.74700
O547        O  0.20097193  0.33903186  0.16673190    -0.58700
O548        O  0.18827780  0.34398684  0.23564309    -0.48800
O549        O  0.22447335  0.37037737  0.18041500    -0.55200
C550        C  0.20017215  0.40108867  0.23273009     0.84900
O551        O  0.14028931  0.36811457  0.19175064    -0.57100
O552        O  0.17934587  0.32218207  0.20143051    -0.60400
C553        C  0.43031136  0.41612017  0.27574793     0.01100
C554        C  0.43117903  0.38847869  0.27525973     0.03900
C555        C  0.41800049  0.37486016  0.25531867    -0.12100
C556        C  0.40375283  0.38890617  0.23605771     0.23200
C557        C  0.40428036  0.41655988  0.23556839    -0.12700
C558        C  0.41767032  0.43020624  0.25540506     0.04600
C559        C  0.38443040  0.37495690  0.21970577     0.27000
C560        C  0.39151752  0.36324919  0.19571631    -0.13400
C561        C  0.37268149  0.34923360  0.18119587     0.05100
C562        C  0.34674668  0.34765850  0.19046166    -0.09400
C563        C  0.33955587  0.36036814  0.21390485     0.06000
C564        C  0.35858076  0.37316989  0.22893316    -0.13700
Br565      Br  0.38625816  0.43549512  0.20788931    -0.05800
Br566      Br  0.44996918  0.36929514  0.30229073    -0.00200
Br567      Br  0.38263786  0.33109379  0.14954768     0.00300
Br568      Br  0.34979367  0.38704822  0.26302348    -0.04100
Br569      Br  0.41947046  0.46803613  0.25428277     0.00400
Br570      Br  0.41885755  0.33698454  0.25462295    -0.03400
Br571      Br  0.42711791  0.36567543  0.18350640    -0.04300
Br572      Br  0.30337920  0.36128833  0.22491872    -0.00300
C573        C  0.30925323  0.48076516  0.32743247     0.01100
C574        C  0.31280168  0.46432147  0.30556187     0.03900
C575        C  0.29102185  0.45220264  0.29387120    -0.12100
C576        C  0.26554859  0.45669260  0.30382015     0.23200
C577        C  0.26223086  0.47210680  0.32655107    -0.12700
C578        C  0.28422070  0.48346556  0.33875132     0.04600
C579        C  0.24269049  0.44647902  0.28884949     0.27000
C580        C  0.23700828  0.45715975  0.26384214    -0.13400
C581        C  0.22183711  0.44289797  0.24579413     0.05100
C582        C  0.21099400  0.41860863  0.25318510    -0.09400
C583        C  0.21347185  0.40989233  0.27952246     0.06000
C584        C  0.22964673  0.42364522  0.29724194    -0.13700
Br585      Br  0.22755744  0.47987689  0.33946338    -0.05800
Br586      Br  0.34710505  0.46029500  0.29009040    -0.00200
Br587      Br  0.21658090  0.45633467  0.21063386     0.00300
Br588      Br  0.23517422  0.41032275  0.33241249    -0.04100
Br589      Br  0.28027916  0.50287580  0.37099159     0.00400
Br590      Br  0.29578768  0.43152484  0.26247085    -0.03400
Br591      Br  0.25191598  0.49042977  0.25371382    -0.04300
Br592      Br  0.19674624  0.37801205  0.29100888    -0.00300
C593        C  0.34837570  0.38780097  0.38133673     0.01100
C594        C  0.32108781  0.38639053  0.38500682     0.03900
C595        C  0.30671271  0.36637346  0.37286858    -0.12100
C596        C  0.31917803  0.34914376  0.35521489     0.23200
C597        C  0.34615487  0.35179013  0.35001112    -0.12700
C598        C  0.36093670  0.37053218  0.36377578     0.04600
C599        C  0.30300881  0.33063689  0.33986351     0.27000
C600        C  0.30006141  0.30428063  0.34789148    -0.13400
C601        C  0.28292118  0.28766720  0.33396131     0.05100
C602        C  0.26875494  0.29757127  0.31219712    -0.09400
C603        C  0.27201184  0.32385146  0.30414219     0.06000
C604        C  0.28912910  0.34025200  0.31789529    -0.13700
Br605      Br  0.36258177  0.33031294  0.32355568    -0.05800
Br606      Br  0.30319910  0.41298683  0.40519536    -0.00200
Br607      Br  0.27805463  0.25182677  0.34509357     0.00300
Br608      Br  0.29371270  0.37609929  0.30670053    -0.04100
Br609      Br  0.39845417  0.37190599  0.35935383     0.00400
Br610      Br  0.26984040  0.36254196  0.38021112    -0.03400
Br611      Br  0.31929720  0.29125530  0.37799381    -0.04300
Br612      Br  0.25400113  0.33730679  0.27338424    -0.00300
C613        C  0.64304467  0.39817174  0.26954237     0.01100
C614        C  0.62182732  0.38112747  0.27372976     0.03900
C615        C  0.59820662  0.39087421  0.28409589    -0.12100
C616        C  0.59548657  0.41784001  0.28973576     0.23200
C617        C  0.61690792  0.43479586  0.28617196    -0.12700
C618        C  0.64066436  0.42498254  0.27596144     0.04600
C619        C  0.56916788  0.42854664  0.29626542     0.27000
C620        C  0.55253763  0.43710415  0.27576824    -0.13400
C621        C  0.52642354  0.44415421  0.28106035     0.05100
C622        C  0.51628030  0.44137296  0.30676839    -0.09400
C623        C  0.53333634  0.43385016  0.32752396     0.06000
C624        C  0.55989347  0.42801056  0.32227807    -0.13700
Br625      Br  0.61317850  0.47156503  0.29439221    -0.05800
Br626      Br  0.62489964  0.34448575  0.26446389    -0.00200
Br627      Br  0.50468395  0.45758057  0.25269246     0.00300
Br628      Br  0.58348847  0.41802582  0.35037535    -0.04100
Br629      Br  0.66909950  0.44857770  0.26855316     0.00400
Br630      Br  0.56912921  0.36748424  0.28970358    -0.03400
Br631      Br  0.56522848  0.43760744  0.24005015    -0.04300
Br632      Br  0.52012496  0.42884695  0.36262651    -0.00300
C633        C  0.74993767  0.42424012  0.19339307     0.01100
C634        C  0.75660154  0.44939579  0.20279834     0.03900
C635        C  0.77415824  0.46512207  0.18852852    -0.12100
C636        C  0.78517291  0.45562033  0.16507419     0.23200
C637        C  0.77859311  0.43059098  0.15569244    -0.12700
C638        C  0.76125402  0.41479573  0.16987916     0.04600
C639        C  0.80204361  0.47251105  0.14883076     0.27000
C640        C  0.79054092  0.48723624  0.12830269    -0.13400
C641        C  0.80647511  0.50079350  0.11058103     0.05100
C642        C  0.83393478  0.49993999  0.11360910    -0.09400
C643        C  0.84548450  0.48588181  0.13459148     0.06000
C644        C  0.82950610  0.47197023  0.15215295    -0.13700
Br645      Br  0.79283616  0.41841404  0.12274854    -0.05800
Br646      Br  0.74077084  0.46293072  0.23435542    -0.00200
Br647      Br  0.79064438  0.51939145  0.08137396     0.00300
Br648      Br  0.84508102  0.45191317  0.18046563    -0.04100
Br649      Br  0.75443572  0.37965874  0.15736001     0.00400
Br650      Br  0.78243651  0.50008819  0.20028875    -0.03400
Br651      Br  0.75288463  0.48801254  0.12406445    -0.04300
Br652      Br  0.88305719  0.48632539  0.13951606    -0.00300
C653        C  0.82483846  0.39244962  0.02363632     0.01100
C654        C  0.80166160  0.39884086  0.03716696     0.03900
C655        C  0.78689545  0.37885658  0.04902533    -0.12100
C656        C  0.79573705  0.35257800  0.04804346     0.23200
C657        C  0.81911028  0.34624359  0.03483453    -0.12700
C658        C  0.83329206  0.36607502  0.02210014     0.04600
C659        C  0.78234091  0.33232941  0.06386918     0.27000
C660        C  0.78988856  0.32900499  0.09025009    -0.13400
C661        C  0.77639359  0.31146654  0.10644580     0.05100
C662        C  0.75526856  0.29691902  0.09616956    -0.09400
C663        C  0.74819584  0.29952343  0.06948426     0.06000
C664        C  0.76167312  0.31738454  0.05331237    -0.13700
Br665      Br  0.83179197  0.31044868  0.03462721    -0.05800
Br666      Br  0.78977355  0.43484913  0.03863763    -0.00200
Br667      Br  0.78542157  0.30956521  0.14335190     0.00300
Br668      Br  0.75125167  0.32231712  0.01717231    -0.04100
Br669      Br  0.86392975  0.35708544  0.00182522     0.00400
Br670      Br  0.75445659  0.38724374  0.06657082    -0.03400
Br671      Br  0.81785664  0.34990848  0.10441790    -0.04300
Br672      Br  0.72026027  0.27849742  0.05526573    -0.00300
C673        C  0.86096154  0.30252859  0.19692078     0.01100
C674        C  0.85890895  0.29367725  0.17061964     0.03900
C675        C  0.87058201  0.30811797  0.15011664    -0.12100
C676        C  0.88559584  0.33056962  0.15587770     0.23200
C677        C  0.89070693  0.33703836  0.18235713    -0.12700
C678        C  0.87831958  0.32317649  0.20277456     0.04600
C679        C  0.89498118  0.34817000  0.13440462     0.27000
C680        C  0.91657108  0.34090437  0.11874517    -0.13400
C681        C  0.92663650  0.35873510  0.10016648     0.05100
C682        C  0.91562954  0.38419549  0.09751421    -0.09400
C683        C  0.89270305  0.39057378  0.11156299     0.06000
C684        C  0.88279247  0.37289202  0.13035786    -0.13700
Br685      Br  0.91401556  0.36560957  0.19057392    -0.05800
Br686      Br  0.83963040  0.26232271  0.16201458    -0.00200
Br687      Br  0.95557735  0.34823371  0.07814032     0.00300
Br688      Br  0.85380034  0.38353976  0.15225817    -0.04100
Br689      Br  0.88592579  0.33181537  0.23889912     0.00400
Br690      Br  0.86481380  0.29783997  0.11404146    -0.03400
Br691      Br  0.93376793  0.30740365  0.12424883    -0.04300
Br692      Br  0.87551697  0.42404007  0.10632824    -0.00300
C693        C  0.99800336  0.43135406  0.09503375     0.01100
C694        C  0.00143085  0.43620215  0.12210260     0.03900
C695        C  0.02604594  0.43199281  0.13409006    -0.12100
C696        C  0.04733191  0.42278581  0.11908411     0.23200
C697        C  0.04445608  0.42007310  0.09161880    -0.12700
C698        C  0.01985123  0.42464413  0.07956210     0.04600
C699        C  0.07158828  0.41330764  0.13266180     0.27000
C700        C  0.09161846  0.43088728  0.13965648    -0.13400
C701        C  0.11372500  0.42187015  0.15396195     0.05100
C702        C  0.11660276  0.39488338  0.16018260    -0.09400
C703        C  0.09624468  0.37737057  0.15338399     0.06000
C704        C  0.07371435  0.38667796  0.14006364    -0.13700
Br705      Br  0.07379458  0.40837143  0.07089351    -0.05800
Br706      Br  0.97206851  0.44795630  0.14287195    -0.00200
Br707      Br  0.13857683  0.44704193  0.16725499     0.00300
Br708      Br  0.04521871  0.36304998  0.13238782    -0.04100
Br709      Br  0.01555527  0.41991154  0.04220710     0.00400
Br710      Br  0.03026717  0.43708562  0.17142727    -0.03400
Br711      Br  0.08834771  0.46742883  0.12998532    -0.04300
Br712      Br  0.09905386  0.34035514  0.16153014    -0.00300
C713        C  0.34143271  0.57044862  0.32820939     0.01100
C714        C  0.32362893  0.58570641  0.34285092     0.03900
C715        C  0.31609608  0.61087398  0.33391889    -0.12100
C716        C  0.32732188  0.62143493  0.31093566     0.23200
C717        C  0.34643579  0.60681020  0.29724577    -0.12700
C718        C  0.35298594  0.58111637  0.30549224     0.04600
C719        C  0.31874049  0.64777597  0.30119864     0.27000
C720        C  0.30054746  0.64988264  0.28029788    -0.13400
C721        C  0.29046957  0.67466165  0.27284837     0.05100
C722        C  0.29874367  0.69753740  0.28605791    -0.09400
C723        C  0.31806675  0.69555370  0.30592371     0.06000
C724        C  0.32793784  0.67071763  0.31353723    -0.13700
Br725      Br  0.36353011  0.62203740  0.26718064    -0.05800
Br726      Br  0.31007535  0.57226460  0.37549856    -0.00200
Br727      Br  0.26603822  0.67728433  0.24376426     0.00300
Br728      Br  0.35396359  0.66791302  0.34108605    -0.04100
Br729      Br  0.37671327  0.55997417  0.28491759     0.00400
Br730      Br  0.28987939  0.63065449  0.35281530    -0.03400
Br731      Br  0.28938288  0.61877693  0.26187518    -0.04300
Br732      Br  0.33015127  0.72665305  0.32366161    -0.00300
C733        C  0.24261769  0.81650021  0.32352988     0.01100
C734        C  0.24898391  0.84346488  0.32090910     0.03900
C735        C  0.23690690  0.86235787  0.33713710    -0.12100
C736        C  0.21807161  0.85458540  0.35566485     0.23200
C737        C  0.21362314  0.82765900  0.36006067    -0.12700
C738        C  0.22578971  0.80866615  0.34403771     0.04600
C739        C  0.20087283  0.87455951  0.36834164     0.27000
C740        C  0.20965003  0.88907856  0.39013309    -0.13400
C741        C  0.19280769  0.90743091  0.40222919     0.05100
C742        C  0.16667756  0.91082772  0.39308496    -0.09400
C743        C  0.15848233  0.89718075  0.37028351     0.06000
C744        C  0.17536450  0.87885204  0.35833651    -0.13700
Br745      Br  0.19027599  0.81706304  0.38780838    -0.05800
Br746      Br  0.27255632  0.85539696  0.29390430    -0.00200
Br747      Br  0.20630003  0.92871323  0.43057616     0.00300
Br748      Br  0.16289253  0.85826402  0.32900670    -0.04100
Br749      Br  0.21965651  0.77190060  0.35062359     0.00400
Br750      Br  0.24567665  0.89907748  0.33368867    -0.03400
Br751      Br  0.24438637  0.88281997  0.40414931    -0.04300
Br752      Br  0.12394623  0.90220847  0.35531543    -0.00300
C753        C  0.06052865  0.89735944  0.29559291     0.01100
C754        C  0.05920128  0.90291422  0.26847793     0.03900
C755        C  0.06849093  0.88446311  0.25026875    -0.12100
C756        C  0.08051709  0.86104310  0.25913837     0.23200
C757        C  0.08223397  0.85561895  0.28625913    -0.12700
C758        C  0.07113517  0.87322614  0.30438716     0.04600
C759        C  0.09501884  0.84475017  0.24001950     0.27000
C760        C  0.08390389  0.82226234  0.22850990    -0.13400
C761        C  0.09791968  0.80834912  0.20912335     0.05100
C762        C  0.12204904  0.81812835  0.19995644    -0.09400
C763        C  0.13241935  0.84135077  0.21087548     0.06000
C764        C  0.11969527  0.85348280  0.23191403    -0.13700
Br765      Br  0.10047834  0.82457518  0.29848484    -0.05800
Br766      Br  0.04435021  0.93576259  0.25628485    -0.00200
Br767      Br  0.08392785  0.77633338  0.19477592     0.00300
Br768      Br  0.13665862  0.88119768  0.25109266    -0.04100
Br769      Br  0.06829164  0.86326756  0.34084892     0.00400
Br770      Br  0.06510992  0.89124839  0.21303187    -0.03400
Br771      Br  0.04989896  0.81049383  0.23964543    -0.04300
Br772      Br  0.16462651  0.85649469  0.19818381    -0.00300
C773        C  0.23862605  0.90838773  0.21145928     0.01100
C774        C  0.22625189  0.89719068  0.23356286     0.03900
C775        C  0.21231224  0.91318521  0.25102455    -0.12100
C776        C  0.20914495  0.94012055  0.24575066     0.23200
C777        C  0.22034850  0.95122313  0.22306778    -0.12700
C778        C  0.23523984  0.93537620  0.20593947     0.04600
C779        C  0.19269073  0.95604613  0.26361117     0.27000
C780        C  0.16540693  0.95747726  0.25933625    -0.13400
C781        C  0.14910473  0.96947243  0.27806124     0.05100
C782        C  0.16021808  0.98091913  0.30066114    -0.09400
C783        C  0.18759119  0.97970723  0.30477275     0.06000
C784        C  0.20380379  0.96730003  0.28626644    -0.13700
Br785      Br  0.21531825  0.98809996  0.21578091    -0.05800
Br786      Br  0.22621856  0.85952577  0.23890594    -0.00200
Br787      Br  0.11174875  0.97123104  0.27207850     0.00300
Br788      Br  0.24128775  0.96618542  0.29151562    -0.04100
Br789      Br  0.25131902  0.95074675  0.17541288     0.00400
Br790      Br  0.19751190  0.89828296  0.28241305    -0.03400
Br791      Br  0.15071586  0.94412388  0.22707114    -0.04300
Br792      Br  0.20283150  0.99468256  0.33608915    -0.00300
C793        C  0.14101281  0.06948888  0.32836870     0.01100
C794        C  0.16265907  0.08030798  0.34163811     0.03900
C795        C  0.17181166  0.10523199  0.33436564    -0.12100
C796        C  0.15915649  0.11920636  0.31393647     0.23200
C797        C  0.13659361  0.10901041  0.30178485    -0.12700
C798        C  0.12761538  0.08404057  0.30889808     0.04600
C799        C  0.17058841  0.14370804  0.30382561     0.27000
C800        C  0.16292060  0.16797201  0.31444029    -0.13400
C801        C  0.17371718  0.19130025  0.30466398     0.05100
C802        C  0.19205722  0.19033500  0.28388592    -0.09400
C803        C  0.19923156  0.16585868  0.27288227     0.06000
C804        C  0.18848915  0.14260858  0.28291341    -0.13700
Br805      Br  0.11906234  0.12866972  0.27428179    -0.05800
Br806      Br  0.18032048  0.06043951  0.36888639    -0.00200
Br807      Br  0.16391690  0.22418508  0.32091765     0.00300
Br808      Br  0.19757961  0.10910520  0.26756635    -0.04100
Br809      Br  0.09834574  0.06874565  0.29043701     0.00400
Br810      Br  0.20243650  0.11968790  0.35122913    -0.03400
Br811      Br  0.13721370  0.16902684  0.34213527    -0.04300
Br812      Br  0.22249532  0.16381382  0.24307215    -0.00300
C813        C  0.32942893  0.37729431  0.59547419     0.01100
C814        C  0.35701154  0.37864692  0.59320444     0.03900
C815        C  0.36841589  0.38557088  0.56896303    -0.12100
C816        C  0.35237479  0.39085387  0.54689708     0.23200
C817        C  0.32487047  0.39100982  0.54963720    -0.12700
C818        C  0.31349495  0.38491641  0.57401363     0.04600
C819        C  0.36419594  0.39731382  0.52098809     0.27000
C820        C  0.36659400  0.42374031  0.51315477    -0.13400
C821        C  0.37467738  0.43004772  0.48745254     0.05100
C822        C  0.37957467  0.40978698  0.46912548    -0.09400
C823        C  0.37992056  0.38338539  0.47798463     0.06000
C824        C  0.37195234  0.37715877  0.50372207    -0.13700
Br825      Br  0.30272747  0.39925870  0.51981339    -0.05800
Br826      Br  0.37935550  0.37021715  0.62282564    -0.00200
Br827      Br  0.37789700  0.46649908  0.47763754     0.00300
Br828      Br  0.37044325  0.34095443  0.51496123    -0.04100
Br829      Br  0.27612269  0.38882145  0.57862546     0.00400
Br830      Br  0.40601029  0.38771488  0.56571818    -0.03400
Br831      Br  0.35722340  0.45124349  0.53744320    -0.04300
Br832      Br  0.39215151  0.35569084  0.45510934    -0.00300
C833        C  0.41885775  0.20518530  0.77795230     0.01100
C834        C  0.39542385  0.21943550  0.78243824     0.03900
C835        C  0.38444718  0.23496726  0.76214669    -0.12100
C836        C  0.39614760  0.23570976  0.73715252     0.23200
C837        C  0.41854623  0.22040940  0.73215280    -0.12700
C838        C  0.42942602  0.20459898  0.75219838     0.04600
C839        C  0.38488611  0.25320375  0.71653017     0.27000
C840        C  0.36530435  0.24379813  0.69947305    -0.13400
C841        C  0.35005611  0.26159936  0.68451522     0.05100
C842        C  0.35525365  0.28885419  0.68577284    -0.09400
C843        C  0.37714780  0.29767721  0.70026646     0.06000
C844        C  0.39158811  0.27996467  0.71603606    -0.13700
Br845      Br  0.43548340  0.22292658  0.69843748    -0.05800
Br846      Br  0.37863255  0.21890256  0.81628900    -0.00200
Br847      Br  0.32056338  0.24842606  0.66470367     0.00300
Br848      Br  0.41970024  0.29241363  0.73813509    -0.04100
Br849      Br  0.45857370  0.18163518  0.74383909     0.00400
Br850      Br  0.35482961  0.25757698  0.76899141    -0.03400
Br851      Br  0.35879586  0.20655629  0.69758828    -0.04300
Br852      Br  0.38756528  0.33399365  0.69837409    -0.00300
C853        C  0.22505532  0.21459777  0.74148486     0.01100
C854        C  0.22674469  0.22057844  0.76863537     0.03900
C855        C  0.24353809  0.20578555  0.78520998    -0.12100
C856        C  0.25834032  0.18472632  0.77488161     0.23200
C857        C  0.25470140  0.17727640  0.74846668    -0.12700
C858        C  0.23841390  0.19227757  0.73175861     0.04600
C859        C  0.27849136  0.17077062  0.79110142     0.27000
C860        C  0.30533058  0.17367397  0.78505349    -0.13400
C861        C  0.32423559  0.15720245  0.79699121     0.05100
C862        C  0.31680846  0.13974927  0.81709451    -0.09400
C863        C  0.29025249  0.13820815  0.82450511     0.06000
C864        C  0.27099983  0.15266673  0.81064491    -0.13700
Br865      Br  0.27233506  0.14638477  0.73509866    -0.05800
Br866      Br  0.20747072  0.24981807  0.78338291    -0.00200
Br867      Br  0.35958321  0.15629089  0.78362400     0.00300
Br868      Br  0.23436314  0.14607478  0.81702304    -0.04100
Br869      Br  0.23417781  0.18159044  0.69557890     0.00400
Br870      Br  0.24662452  0.21478120  0.82195575    -0.03400
Br871      Br  0.31602328  0.19934104  0.75937999    -0.04300
Br872      Br  0.28025326  0.11654190  0.85390740    -0.00300
C873        C  0.27194239  0.33311875  0.81193230     0.01100
C874        C  0.27840464  0.30729806  0.80409683     0.03900
C875        C  0.29451786  0.29143380  0.82010924    -0.12100
C876        C  0.30498275  0.30133299  0.84367751     0.23200
C877        C  0.29862837  0.32715380  0.85158475    -0.12700
C878        C  0.28202439  0.34303088  0.83575932     0.04600
C879        C  0.32075523  0.28344870  0.86086141     0.27000
C880        C  0.30774460  0.26674666  0.87853627    -0.13400
C881        C  0.32184360  0.24729503  0.89245283     0.05100
C882        C  0.34924173  0.24483154  0.88939972    -0.09400
C883        C  0.36245798  0.26209742  0.87233459     0.06000
C884        C  0.34814010  0.28096549  0.85760769    -0.13700
Br885      Br  0.31162444  0.34012894  0.88467537    -0.05800
Br886      Br  0.26591499  0.29359081  0.77092631    -0.00200
Br887      Br  0.30332039  0.22325781  0.91500211     0.00300
Br888      Br  0.36577905  0.30297537  0.83248272    -0.04100
Br889      Br  0.27150488  0.37747581  0.84760735     0.00400
Br890      Br  0.30124827  0.25544786  0.81053524    -0.03400
Br891      Br  0.27028989  0.27008394  0.88295519    -0.04300
Br892      Br  0.40020214  0.26069020  0.87010400    -0.00300
C893        C  0.37502250  0.21480425  0.97680742     0.01100
C894        C  0.35837939  0.19963708  0.99269709     0.03900
C895        C  0.35365031  0.20730023  0.01876894    -0.12100
C896        C  0.36391150  0.23113007  0.02816364     0.23200
C897        C  0.38230621  0.24500374  0.01305123    -0.12700
C898        C  0.38839234  0.23634959  0.98759581     0.04600
C899        C  0.35109607  0.24402160  0.05081626     0.27000
C900        C  0.32691104  0.25700616  0.04668110    -0.13400
C901        C  0.31352932  0.26840309  0.06787056     0.05100
C902        C  0.32432525  0.26700328  0.09345159    -0.09400
C903        C  0.34874292  0.25405406  0.09753543     0.06000
C904        C  0.36211424  0.24269692  0.07617783    -0.13700
Br905      Br  0.39721268  0.27709031  0.02621008    -0.05800
Br906      Br  0.33954384  0.17045365  0.97790863    -0.00200
Br907      Br  0.27963182  0.28453176  0.06166045     0.00300
Br908      Br  0.39554798  0.22539466  0.08142178    -0.04100
Br909      Br  0.41415119  0.25454156  0.96687420     0.00400
Br910      Br  0.33116873  0.18669111  0.04102541    -0.03400
Br911      Br  0.31196943  0.25895851  0.01169248    -0.04300
Br912      Br  0.36472848  0.25256633  0.13202879    -0.00300
C913        C  0.62751307  0.22231578  0.75473143     0.01100
C914        C  0.60423042  0.21568715  0.74102900     0.03900
C915        C  0.58113145  0.21039893  0.75498579    -0.12100
C916        C  0.58111888  0.21136384  0.78261004     0.23200
C917        C  0.60421820  0.21729513  0.79641661    -0.12700
C918        C  0.62741760  0.22272146  0.78263383     0.04600
C919        C  0.55639615  0.20684626  0.79692954     0.27000
C920        C  0.53916477  0.22804270  0.80150247    -0.13400
C921        C  0.51410581  0.22334023  0.81164249     0.05100
C922        C  0.50580245  0.19735847  0.81600878    -0.09400
C923        C  0.52361680  0.17626067  0.81297340     0.06000
C924        C  0.54915850  0.18114826  0.80399694    -0.13700
Br925      Br  0.60353075  0.21880713  0.83432777    -0.05800
Br926      Br  0.60360392  0.21281853  0.70315774    -0.00200
Br927      Br  0.49083622  0.25245273  0.81910752     0.00300
Br928      Br  0.57391705  0.15262996  0.80000813    -0.04100
Br929      Br  0.65822876  0.23224761  0.80262131     0.00400
Br930      Br  0.54906291  0.20234399  0.73633399    -0.03400
Br931      Br  0.54934868  0.26329547  0.79228152    -0.04300
Br932      Br  0.51241877  0.14050429  0.81827078    -0.00300
C933        C  0.80608140  0.36915769  0.81250743     0.01100
C934        C  0.80106301  0.39652319  0.81402098     0.03900
C935        C  0.80784994  0.41048028  0.83687976    -0.12100
C936        C  0.81785803  0.39695565  0.85893125     0.23200
C937        C  0.82223925  0.36963177  0.85775743    -0.12700
C938        C  0.81710454  0.35588032  0.83443602     0.04600
C939        C  0.82361491  0.41099275  0.88373346     0.27000
C940        C  0.84982399  0.41586968  0.89089381    -0.13400
C941        C  0.85607392  0.42284908  0.91688732     0.05100
C942        C  0.83585019  0.42621744  0.93549294    -0.09400
C943        C  0.80936331  0.42376584  0.92747871     0.06000
C944        C  0.80330518  0.41598734  0.90168967    -0.13700
Br945      Br  0.83541761  0.35098718  0.88831895    -0.05800
Br946      Br  0.78318664  0.41493356  0.78582702    -0.00200
Br947      Br  0.89250635  0.42413607  0.92734862     0.00300
Br948      Br  0.76725017  0.41065568  0.89132488    -0.04100
Br949      Br  0.82681368  0.31914239  0.83255078     0.00400
Br950      Br  0.80392020  0.44818967  0.83804380    -0.03400
Br951      Br  0.87721853  0.41120676  0.86526404    -0.04300
Br952      Br  0.78116218  0.43011950  0.95196057    -0.00300
C953        C  0.03927768  0.02230475  0.41300091     0.01100
C954        C  0.05383629  0.03794598  0.43117810     0.03900
C955        C  0.04078163  0.05441623  0.44906594    -0.12100
C956        C  0.01329748  0.05565537  0.44911185     0.23200
C957        C  0.99889221  0.04245119  0.42975031    -0.12700
C958        C  0.01189938  0.02758073  0.41050459     0.04600
C959        C  0.99934404  0.07225254  0.46838464     0.27000
C960        C  0.98970213  0.06106379  0.49162962    -0.13400
C961        C  0.97411880  0.07619905  0.50865300     0.05100
C962        C  0.96649792  0.10216970  0.50133265    -0.09400
C963        C  0.98109279  0.11456119  0.48107311     0.06000
C964        C  0.99603907  0.09928066  0.46368311    -0.13700
Br965      Br  0.96106996  0.04563895  0.42924381    -0.05800
Br966      Br  0.09188658  0.03884466  0.43119972    -0.00200
Br967      Br  0.96740820  0.06227616  0.54338796     0.00300
Br968      Br  0.01190103  0.11529237  0.43324964    -0.04100
Br969      Br  0.99288413  0.02236551  0.37808858     0.00400
Br970      Br  0.06043883  0.07555245  0.47364999    -0.03400
Br971      Br  0.99799714  0.02490089  0.49994016    -0.04300
Br972      Br  0.98522033  0.15231838  0.47954779    -0.00300
C973        C  0.92685045  0.21032354  0.62816477     0.01100
C974        C  0.90082677  0.20594833  0.63646793     0.03900
C975        C  0.88896629  0.22328207  0.65456629    -0.12100
C976        C  0.90327236  0.24431943  0.66532309     0.23200
C977        C  0.92901936  0.24884015  0.65693735    -0.12700
C978        C  0.94002506  0.23311387  0.63717845     0.04600
C979        C  0.89010513  0.26324606  0.68323229     0.27000
C980        C  0.87980852  0.28685367  0.67290424    -0.13400
C981        C  0.86319984  0.30272323  0.68822987     0.05100
C982        C  0.85675724  0.29498903  0.71420772    -0.09400
C983        C  0.86942267  0.27270801  0.72534261     0.06000
C984        C  0.88602745  0.25689181  0.70984352    -0.13700
Br985      Br  0.94939209  0.27637136  0.67296046    -0.05800
Br986      Br  0.88122832  0.17643666  0.62361083    -0.00200
Br987      Br  0.84800624  0.33375390  0.67209175     0.00300
Br988      Br  0.90267785  0.22602578  0.72464346    -0.04100
Br989      Br  0.97201887  0.24485706  0.62071529     0.00400
Br990      Br  0.85308698  0.21828506  0.66511683    -0.03400
Br991      Br  0.88749073  0.29672438  0.63705101    -0.04300
Br992      Br  0.86436512  0.26376667  0.76186913    -0.00300
C993        C  0.01226505  0.17411705  0.61013513     0.01100
C994        C  0.02347834  0.16694934  0.63444397     0.03900
C995        C  0.04800801  0.17704112  0.64182682    -0.12100
C996        C  0.06216413  0.19278111  0.62409405     0.23200
C997        C  0.05206989  0.19768362  0.59870606    -0.12700
C998        C  0.02681451  0.18901197  0.59197172     0.04600
C999        C  0.08566859  0.20709747  0.63338163     0.27000
C1000       C  0.08266989  0.23277705  0.64309909    -0.13400
C1001       C  0.10444629  0.24638134  0.65307384     0.05100
C1002       C  0.12950743  0.23419192  0.65379732    -0.09400
C1003       C  0.13237323  0.20827601  0.64398906     0.06000
C1004       C  0.11054035  0.19498360  0.63348478    -0.13700
Br1005     Br  0.07191250  0.21838270  0.57412556    -0.05800
Br1006     Br  0.00466892  0.14400943  0.65781013    -0.00200
Br1007     Br  0.09944051  0.28199761  0.66513999     0.00300
Br1008     Br  0.11432686  0.15991865  0.61961865    -0.04100
Br1009     Br  0.01098875  0.20046167  0.55923791     0.00400
Br1010     Br  0.06084989  0.17181022  0.67718269    -0.03400
Br1011     Br  0.04828569  0.24906822  0.64318186    -0.04300
Br1012     Br  0.16543236  0.18969913  0.64685383    -0.00300
C1013       C  0.82844617  0.12094198  0.59981728     0.01100
C1014       C  0.80544351  0.13124690  0.58828850     0.03900
C1015       C  0.78742016  0.14519908  0.60373946    -0.12100
C1016       C  0.79241680  0.14875525  0.63076526     0.23200
C1017       C  0.81555439  0.13849301  0.64225386    -0.12700
C1018       C  0.83329398  0.12407001  0.62685247     0.04600
C1019       C  0.77356648  0.16386215  0.64684683     0.27000
C1020       C  0.77377043  0.19143619  0.64574655    -0.13400
C1021       C  0.75585503  0.20601360  0.66064720     0.05100
C1022       C  0.73669343  0.19306709  0.67565128    -0.09400
C1023       C  0.73634173  0.16545239  0.67676906     0.06000
C1024       C  0.75502825  0.15081201  0.66257250    -0.13700
Br1025     Br  0.82308763  0.14457289  0.67890224    -0.05800
Br1026     Br  0.79819900  0.12521926  0.55157294    -0.00200
Br1027     Br  0.75844307  0.24382805  0.66146824     0.00300
Br1028     Br  0.75501716  0.11295777  0.66407699    -0.04100
Br1029     Br  0.86380159  0.10776793  0.64277899     0.00400
Br1030     Br  0.75592472  0.15958171  0.58792770    -0.03400
Br1031     Br  0.79802515  0.20911073  0.62298632    -0.04300
Br1032     Br  0.70975440  0.14787139  0.69682300    -0.00300
C1033       C  0.85211466  0.22811482  0.52281949     0.01100
C1034       C  0.86143358  0.25284254  0.53051449     0.03900
C1035       C  0.84414727  0.27128810  0.54155727    -0.12100
C1036       C  0.81776354  0.26451180  0.54601003     0.23200
C1037       C  0.80866660  0.23937812  0.53895541    -0.12700
C1038       C  0.82573434  0.22141666  0.52681848     0.04600
C1039       C  0.80018022  0.28292410  0.56006403     0.27000
C1040       C  0.80305632  0.28576860  0.58739375    -0.13400
C1041       C  0.78565825  0.30189448  0.60132706     0.05100
C1042       C  0.76495645  0.31504073  0.58808476    -0.09400
C1043       C  0.76223520  0.31249108  0.56065174     0.06000
C1044       C  0.78018635  0.29682782  0.54655312    -0.13700
Br1045     Br  0.77295499  0.22945134  0.54614402    -0.05800
Br1046     Br  0.89794528  0.26125111  0.52585759    -0.00200
Br1047     Br  0.78959595  0.30446443  0.63893051     0.00300
Br1048     Br  0.77783643  0.29467197  0.50877982    -0.04100
Br1049     Br  0.81295850  0.18791960  0.51488277     0.00400
Br1050     Br  0.85651509  0.30588977  0.55042533    -0.03400
Br1051     Br  0.83077753  0.26720181  0.60584422    -0.04300
Br1052     Br  0.73425903  0.33073328  0.54248181    -0.00300
C1053       C  0.88247046  0.20226165  0.43664602     0.01100
C1054       C  0.88543457  0.22745851  0.42541733     0.03900
C1055       C  0.87643610  0.23248249  0.39970767    -0.12100
C1056       C  0.86507604  0.21218424  0.38483317     0.23200
C1057       C  0.86436977  0.18648091  0.39508554    -0.12700
C1058       C  0.87286129  0.18150910  0.42103658     0.04600
C1059       C  0.85269867  0.21854746  0.35908840     0.27000
C1060       C  0.82576429  0.22500764  0.35787322    -0.13400
C1061       C  0.81512547  0.23641107  0.33490854     0.05100
C1062       C  0.83109590  0.24014034  0.31275721    -0.09400
C1063       C  0.85729828  0.23123628  0.31311395     0.06000
C1064       C  0.86822770  0.22080190  0.33640163    -0.13700
Br1065     Br  0.85054057  0.15844476  0.37388570    -0.05800
Br1066     Br  0.90170803  0.25521107  0.44533155    -0.00200
Br1067     Br  0.77889621  0.24757110  0.33389267     0.00300
Br1068     Br  0.90457394  0.21017732  0.33762247    -0.04100
Br1069     Br  0.86893302  0.14674887  0.43569678     0.00400
Br1070     Br  0.87839812  0.26754058  0.38523684    -0.03400
Br1071     Br  0.80359229  0.21839217  0.38773910    -0.04300
Br1072     Br  0.87825148  0.23394439  0.28181913    -0.00300
C1073       C  0.80364404  0.70162655  0.12089506     0.01100
C1074       C  0.80728811  0.67876424  0.13617158     0.03900
C1075       C  0.81996829  0.65674366  0.12538927    -0.12100
C1076       C  0.83000937  0.65783152  0.09960257     0.23200
C1077       C  0.82701898  0.68102195  0.08459632    -0.12700
C1078       C  0.81329734  0.70267377  0.09501812     0.04600
C1079       C  0.84214032  0.63390347  0.08806942     0.27000
C1080       C  0.86687495  0.62493847  0.09706781    -0.13400
C1081       C  0.87521454  0.59913781  0.09138260     0.05100
C1082       C  0.85972557  0.58303449  0.07518813    -0.09400
C1083       C  0.83697964  0.59342615  0.06318674     0.06000
C1084       C  0.82754346  0.61835628  0.07046274    -0.13700
Br1085     Br  0.84154737  0.68300798  0.04974012    -0.05800
Br1086     Br  0.79569905  0.67787917  0.17225489    -0.00200
Br1087     Br  0.90666764  0.58504050  0.10735849     0.00300
Br1088     Br  0.79327701  0.62980980  0.05861588    -0.04100
Br1089     Br  0.80603762  0.73300409  0.07322834     0.00400
Br1090     Br  0.82284136  0.62476981  0.14579620    -0.03400
Br1091     Br  0.88823473  0.64736209  0.11875895    -0.04300
Br1092     Br  0.81810573  0.57274385  0.03780170    -0.00300
C1093       C  0.85244593  0.88907220  0.27308026     0.01100
C1094       C  0.85410542  0.88703670  0.30081210     0.03900
C1095       C  0.87667118  0.89569945  0.31413134    -0.12100
C1096       C  0.89777305  0.90606995  0.29991265     0.23200
C1097       C  0.89618755  0.90838282  0.27238230    -0.12700
C1098       C  0.87367059  0.89989077  0.25892929     0.04600
C1099       C  0.92312128  0.91104718  0.31316285     0.27000
C1100       C  0.93099805  0.93684350  0.31896263    -0.13400
C1101       C  0.95735459  0.94182781  0.32557503     0.05100
C1102       C  0.97521128  0.92066038  0.32855313    -0.09400
C1103       C  0.96615749  0.89459912  0.32602758     0.06000
C1104       C  0.94055926  0.88989234  0.31722144    -0.13700
Br1105     Br  0.92565390  0.92206979  0.25301791    -0.05800
Br1106     Br  0.82692061  0.86999724  0.32076054    -0.00200
Br1107     Br  0.96926823  0.97760286  0.32710255     0.00300
Br1108     Br  0.92997052  0.85454590  0.30866808    -0.04100
Br1109     Br  0.87254787  0.90330278  0.22107076     0.00400
Br1110     Br  0.87956255  0.89207190  0.35182037    -0.03400
Br1111     Br  0.90585834  0.96524032  0.31648908    -0.04300
Br1112     Br  0.98885296  0.86502718  0.33413718    -0.00300
C1113       C  0.53279030  0.02911610  0.00282025     0.01100
C1114       C  0.50578131  0.03500241  0.00697472     0.03900
C1115       C  0.49141265  0.04983969  0.98823481    -0.12100
C1116       C  0.50412325  0.06156439  0.96677835     0.23200
C1117       C  0.53156057  0.05935742  0.96482824    -0.12700
C1118       C  0.54594858  0.04436766  0.98342722     0.04600
C1119       C  0.48887183  0.07884131  0.94830582     0.27000
C1120       C  0.47836320  0.06875525  0.92488330    -0.13400
C1121       C  0.46275125  0.08484388  0.90826675     0.05100
C1122       C  0.45480556  0.11049852  0.91646311    -0.09400
C1123       C  0.46905845  0.12161781  0.93795689     0.06000
C1124       C  0.48541502  0.10565017  0.95397040    -0.13700
Br1125     Br  0.54940902  0.07717852  0.93662706    -0.05800
Br1126     Br  0.48965687  0.03005264  0.04089764    -0.00200
Br1127     Br  0.45719888  0.07278891  0.87264540     0.00300
Br1128     Br  0.50416735  0.12055333  0.98342553    -0.04100
Br1129     Br  0.58366299  0.04842716  0.98425897     0.00400
Br1130     Br  0.45407696  0.05492429  0.99223670    -0.03400
Br1131     Br  0.48620694  0.03289774  0.91531218    -0.04300
Br1132     Br  0.47034995  0.15914174  0.94394004    -0.00300
C1133       C  0.64780229  0.90327274  0.02647758     0.01100
C1134       C  0.67223195  0.91123746  0.03657871     0.03900
C1135       C  0.68798751  0.89335715  0.05092115    -0.12100
C1136       C  0.67922716  0.86745535  0.05521454     0.23200
C1137       C  0.65490177  0.85946746  0.04470787    -0.12700
C1138       C  0.63928221  0.87733294  0.03032678     0.04600
C1139       C  0.69489758  0.84869092  0.07146260     0.27000
C1140       C  0.71673181  0.83545277  0.06076090    -0.13400
C1141       C  0.73040471  0.81648879  0.07581633     0.05100
C1142       C  0.72225072  0.81060699  0.10159270    -0.09400
C1143       C  0.70009014  0.82356984  0.11214101     0.06000
C1144       C  0.68671583  0.84274375  0.09718876    -0.13700
Br1145     Br  0.64309463  0.82387219  0.04984498    -0.05800
Br1146     Br  0.68433514  0.94643691  0.02996074    -0.00200
Br1147     Br  0.75924338  0.79727972  0.06047740     0.00300
Br1148     Br  0.65692404  0.86091934  0.11182448    -0.04100
Br1149     Br  0.60623780  0.86628503  0.01560168     0.00400
Br1150     Br  0.72164511  0.90425466  0.06431783    -0.03400
Br1151     Br  0.72755256  0.84290795  0.02526572    -0.04300
Br1152     Br  0.68815148  0.81587500  0.14733386    -0.00300
C1153       C  0.65177997  0.99344211  0.12153903     0.01100
C1154       C  0.64609876  0.98266271  0.14637589     0.03900
C1155       C  0.66633630  0.97178466  0.16199410    -0.12100
C1156       C  0.69225488  0.97100047  0.15252728     0.23200
C1157       C  0.69800663  0.98212522  0.12783375    -0.12700
C1158       C  0.67777758  0.99319055  0.11231776     0.04600
C1159       C  0.71221213  0.95445691  0.16627346     0.27000
C1160       C  0.72717348  0.96413397  0.18746099    -0.13400
C1161       C  0.74470329  0.94726389  0.20109344     0.05100
C1162       C  0.74754050  0.92081438  0.19325451    -0.09400
C1163       C  0.73265825  0.91133826  0.17184415     0.06000
C1164       C  0.71520732  0.92815956  0.15844360    -0.13700
Br1165     Br  0.73368860  0.98217799  0.11548646    -0.05800
Br1166     Br  0.61044416  0.98253477  0.15875474    -0.00200
Br1167     Br  0.76502722  0.96044160  0.23020142     0.00300
Br1168     Br  0.69457588  0.91510630  0.12957212    -0.04100
Br1169     Br  0.68548146  0.00777200  0.07823831     0.00400
Br1170     Br  0.65877164  0.95821761  0.19655163    -0.03400
Br1171     Br  0.72340892  0.00035226  0.19773482    -0.04300
Br1172     Br  0.73420157  0.87470139  0.16197856    -0.00300
C1173       C  0.66553533  0.20331668  0.13162971     0.01100
C1174       C  0.63845768  0.20273491  0.13746871     0.03900
C1175       C  0.62369950  0.18024091  0.13145386    -0.12100
C1176       C  0.63606275  0.15827778  0.12012382     0.23200
C1177       C  0.66250698  0.15963765  0.11245940    -0.12700
C1178       C  0.67722656  0.18207459  0.11816746     0.04600
C1179       C  0.62230976  0.13293373  0.11750821     0.27000
C1180       C  0.62340625  0.11475437  0.13836431    -0.13400
C1181       C  0.61704099  0.08831875  0.13392114     0.05100
C1182       C  0.61142364  0.07959899  0.10808792    -0.09400
C1183       C  0.60831602  0.09848357  0.08767142     0.06000
C1184       C  0.61273527  0.12521704  0.09283380    -0.13700
Br1185     Br  0.67865681  0.13047761  0.09425246    -0.05800
Br1186     Br  0.62177237  0.23169263  0.15535799    -0.00200
Br1187     Br  0.61624050  0.06436736  0.16347944     0.00300
Br1188     Br  0.60799386  0.15136386  0.06561968    -0.04100
Br1189     Br  0.71329563  0.18369071  0.10677379     0.00400
Br1190     Br  0.58664243  0.17923850  0.13864088    -0.03400
Br1191     Br  0.63570722  0.12578935  0.17252967    -0.04300
Br1192     Br  0.60161531  0.08843753  0.05170953    -0.00300
C1193       C  0.55791090  0.90030012  0.11671820     0.01100
C1194       C  0.55861704  0.90811783  0.14322493     0.03900
C1195       C  0.56924933  0.89127431  0.16248476    -0.12100
C1196       C  0.58163959  0.86763224  0.15506464     0.23200
C1197       C  0.58074558  0.85959774  0.12852122    -0.12700
C1198       C  0.56792763  0.87548178  0.10959801     0.04600
C1199       C  0.59767990  0.85283838  0.17472551     0.27000
C1200       C  0.62171049  0.86344142  0.18325106    -0.13400
C1201       C  0.63751787  0.84968239  0.20141411     0.05100
C1202       C  0.62969612  0.82480473  0.21081244    -0.09400
C1203       C  0.60560617  0.81417595  0.20231008     0.06000
C1204       C  0.58926762  0.82854715  0.18493275    -0.13700
Br1205     Br  0.59668138  0.82676947  0.11810585    -0.05800
Br1206     Br  0.54489554  0.94202533  0.15317097    -0.00200
Br1207     Br  0.67088158  0.86442476  0.21154138     0.00300
Br1208     Br  0.55504483  0.81543719  0.17571631    -0.04100
Br1209     Br  0.56254426  0.86265215  0.07442028     0.00400
Br1210     Br  0.56619567  0.90012817  0.19919262    -0.03400
Br1211     Br  0.63325590  0.89685711  0.16961645    -0.04300
Br1212     Br  0.59480374  0.78004077  0.21458049    -0.00300
C1213       C  0.47125176  0.92600912  0.08839650     0.01100
C1214       C  0.45795075  0.90740871  0.07301433     0.03900
C1215       C  0.43302466  0.89868889  0.08061261    -0.12100
C1216       C  0.42122124  0.90888153  0.10340387     0.23200
C1217       C  0.43419435  0.92806639  0.11841280    -0.12700
C1218       C  0.45920687  0.93661925  0.11089280     0.04600
C1219       C  0.39594927  0.89814273  0.11247279     0.27000
C1220       C  0.37210481  0.90840238  0.10262781    -0.13400
C1221       C  0.34811148  0.89852448  0.11181702     0.05100
C1222       C  0.34807360  0.87803298  0.13055986    -0.09400
C1223       C  0.37202237  0.86662092  0.13895418     0.06000
C1224       C  0.39588642  0.87722765  0.13061716    -0.13700
Br1225     Br  0.41853406  0.94098373  0.15036102    -0.05800
Br1226     Br  0.47491458  0.89239037  0.04274037    -0.00200
Br1227     Br  0.31560477  0.91407781  0.09967590     0.00300
Br1228     Br  0.42854307  0.86370082  0.14473089    -0.04100
Br1229     Br  0.47773828  0.96164964  0.13229121     0.00400
Br1230     Br  0.41595086  0.87112580  0.06120562    -0.03400
Br1231     Br  0.37254122  0.93660466  0.07723295    -0.04300
Br1232     Br  0.37225908  0.83542161  0.16073720    -0.00300
C1233       C  0.15788013  0.88581135  0.60836562     0.01100
C1234       C  0.13131548  0.89101229  0.60242026     0.03900
C1235       C  0.12436840  0.90240621  0.57806216    -0.12100
C1236       C  0.14399371  0.90867837  0.55970669     0.23200
C1237       C  0.17060013  0.90433266  0.56610398    -0.12700
C1238       C  0.17752306  0.89307827  0.59044713     0.04600
C1239       C  0.13677342  0.91651633  0.53249383     0.27000
C1240       C  0.13039983  0.89684140  0.51420507    -0.13400
C1241       C  0.12569483  0.90348504  0.48782311     0.05100
C1242       C  0.12908296  0.92952536  0.47916458    -0.09400
C1243       C  0.13498744  0.94940489  0.49746250     0.06000
C1244       C  0.13822497  0.94296296  0.52428019    -0.13700
Br1245     Br  0.19744703  0.91204046  0.54066456    -0.05800
Br1246     Br  0.10439286  0.88067897  0.62674285    -0.00200
Br1247     Br  0.11442958  0.87683344  0.46341839     0.00300
Br1248     Br  0.14567784  0.96998264  0.54965586    -0.04100
Br1249     Br  0.21401646  0.88751040  0.59928327     0.00400
Br1250     Br  0.08794793  0.90778162  0.56894371    -0.03400
Br1251     Br  0.12992276  0.86043897  0.52494697    -0.04300
Br1252     Br  0.14053697  0.98491960  0.48554103    -0.00300
C1253       C  0.34808401  0.05068807  0.83643768     0.01100
C1254       C  0.33232796  0.03761895  0.85485043     0.03900
C1255       C  0.32395180  0.01183881  0.84988648    -0.12100
C1256       C  0.33240900  0.99866391  0.82707441     0.23200
C1257       C  0.35063672  0.01075899  0.81025632    -0.12700
C1258       C  0.35792939  0.03702227  0.81455825     0.04600
C1259       C  0.31969432  0.97371875  0.81915716     0.27000
C1260       C  0.32685290  0.94968760  0.83109984    -0.13400
C1261       C  0.31325990  0.92655786  0.82467591     0.05100
C1262       C  0.29332993  0.92714500  0.80529838    -0.09400
C1263       C  0.28645355  0.95120195  0.79309141     0.06000
C1264       C  0.29945080  0.97440631  0.80016902    -0.13700
Br1265     Br  0.36464349  0.99157376  0.78082209    -0.05800
Br1266     Br  0.32160381  0.05550429  0.88640894    -0.00200
Br1267     Br  0.32070105  0.89454112  0.84380440     0.00300
Br1268     Br  0.28965169  0.00728909  0.78360577    -0.04100
Br1269     Br  0.38038306  0.05474787  0.78995310     0.00400
Br1270     Br  0.29952212  0.99526185  0.87339596    -0.03400
Br1271     Br  0.35566529  0.94849151  0.85579056    -0.04300
Br1272     Br  0.26003119  0.95249667  0.76572001    -0.00300
C1273       C  0.01671922  0.60214161  0.90830820     0.01100
C1274       C  0.00294638  0.60979708  0.93134859     0.03900
C1275       C  0.98840158  0.59121618  0.94550260    -0.12100
C1276       C  0.98546399  0.56557035  0.93575731     0.23200
C1277       C  0.99516349  0.55923496  0.91078206    -0.12700
C1278       C  0.00947036  0.57790058  0.89642886     0.04600
C1279       C  0.97071242  0.54594162  0.95129102     0.27000
C1280       C  0.98241840  0.53469783  0.97367401    -0.13400
C1281       C  0.96746479  0.51951230  0.99110130     0.05100
C1282       C  0.94147172  0.51164745  0.98415761    -0.09400
C1283       C  0.92934957  0.52482033  0.96224884     0.06000
C1284       C  0.94409211  0.54147756  0.94588190    -0.13700
Br1285     Br  0.98832446  0.52500240  0.89609091    -0.05800
Br1286     Br  0.99939538  0.64627925  0.94158489    -0.00200
Br1287     Br  0.98136715  0.51637156  0.02650965     0.00300
Br1288     Br  0.92748491  0.55995981  0.91682418    -0.04100
Br1289     Br  0.01387111  0.57153604  0.85919171     0.00400
Br1290     Br  0.97188445  0.60101412  0.97820136    -0.03400
Br1291     Br  0.01889069  0.54189813  0.98131685    -0.04300
Br1292     Br  0.89174847  0.52484461  0.95628734    -0.00300
C1293       C  0.04411368  0.72501680  0.79440032     0.01100
C1294       C  0.05091552  0.75023677  0.80323925     0.03900
C1295       C  0.06530233  0.76702251  0.78685215    -0.12100
C1296       C  0.07184060  0.75895698  0.76122205     0.23200
C1297       C  0.06405173  0.73409294  0.75207145    -0.12700
C1298       C  0.05030341  0.71708030  0.76871549     0.04600
C1299       C  0.08881684  0.77546689  0.74456220     0.27000
C1300       C  0.07811717  0.79558506  0.72861014    -0.13400
C1301       C  0.09442656  0.80957323  0.71127824     0.05100
C1302       C  0.12156975  0.80417961  0.71083044    -0.09400
C1303       C  0.13231661  0.78498651  0.72794091     0.06000
C1304       C  0.11585360  0.77008861  0.74401416    -0.13700
Br1305     Br  0.07258028  0.72332126  0.71679430    -0.05800
Br1306     Br  0.03947455  0.76209037  0.83732250    -0.00200
Br1307     Br  0.07951432  0.83509514  0.68738625     0.00300
Br1308     Br  0.13009713  0.74169605  0.76491072    -0.04100
Br1309     Br  0.03940008  0.68308652  0.75625439     0.00400
Br1310     Br  0.07628142  0.80087482  0.79951631    -0.03400
Br1311     Br  0.04118853  0.80366473  0.73050639    -0.04300
Br1312     Br  0.16981023  0.78016076  0.73097364    -0.00300
C1313       C  0.13395398  0.72812458  0.90002008     0.01100
C1314       C  0.12867162  0.73823371  0.87444161     0.03900
C1315       C  0.14540644  0.75716195  0.86319222    -0.12100
C1316       C  0.16719718  0.76660606  0.87735313     0.23200
C1317       C  0.17193308  0.75745363  0.90298292    -0.12700
C1318       C  0.15664683  0.73718029  0.91356543     0.04600
C1319       C  0.18614117  0.78495124  0.86486609     0.27000
C1320       C  0.21084859  0.77557862  0.85656637    -0.13400
C1321       C  0.22814977  0.79233120  0.84308602     0.05100
C1322       C  0.22082243  0.81881114  0.83790458    -0.09400
C1323       C  0.19748565  0.82879189  0.84927658     0.06000
C1324       C  0.18001325  0.81182172  0.86217213    -0.13700
Br1325     Br  0.19912045  0.77354538  0.92393911    -0.05800
Br1326     Br  0.09878037  0.72687807  0.85416342    -0.00200
Br1327     Br  0.26152503  0.77814875  0.83191734     0.00300
Br1328     Br  0.14762831  0.82535509  0.87642320    -0.04100
Br1329     Br  0.16955762  0.72019826  0.94520876     0.00400
Br1330     Br  0.13790242  0.77121408  0.82869828    -0.03400
Br1331     Br  0.22094097  0.73951025  0.86362655    -0.04300
Br1332     Br  0.18999734  0.86605790  0.84904307    -0.00300
C1333       C  0.09800236  0.69597796  0.98290951     0.01100
C1334       C  0.09444281  0.72040752  0.99541895     0.03900
C1335       C  0.10194909  0.72353136  0.02179666    -0.12100
C1336       C  0.11352467  0.70240756  0.03562016     0.23200
C1337       C  0.11430888  0.67726566  0.02421701    -0.12700
C1338       C  0.10626316  0.67393382  0.99787732     0.04600
C1339       C  0.12816424  0.70800358  0.06018965     0.27000
C1340       C  0.15397850  0.71753898  0.05833588    -0.13400
C1341       C  0.16631798  0.72832865  0.08049300     0.05100
C1342       C  0.15275523  0.72993888  0.10447980    -0.09400
C1343       C  0.12784094  0.71835005  0.10692872     0.06000
C1344       C  0.11551632  0.70742289  0.08471044    -0.13700
Br1345     Br  0.12791598  0.64797280  0.04431280    -0.05800
Br1346     Br  0.07991541  0.74988093  0.97616528    -0.00200
Br1347     Br  0.20172807  0.74127446  0.07791787     0.00300
Br1348     Br  0.08053569  0.69362783  0.08721725    -0.04100
Br1349     Br  0.10864151  0.63965417  0.98201317     0.00400
Br1350     Br  0.09800761  0.75722781  0.03867641    -0.03400
Br1351     Br  0.17160681  0.71776132  0.02484086    -0.04300
Br1352     Br  0.10946570  0.71976276  0.13994557    -0.00300
C1353       C  0.14918211  0.64715214  0.81089856     0.01100
C1354       C  0.14318055  0.65675310  0.78562955     0.03900
C1355       C  0.16211094  0.67067246  0.77146939    -0.12100
C1356       C  0.18672467  0.67577544  0.78305640     0.23200
C1357       C  0.19228698  0.66711163  0.80883740    -0.12700
C1358       C  0.17349374  0.65270407  0.82273818     0.04600
C1359       C  0.20669458  0.69037087  0.76816632     0.27000
C1360       C  0.22153238  0.67755737  0.74867617    -0.13400
C1361       C  0.23951139  0.69188396  0.73364171     0.05100
C1362       C  0.24307154  0.71875908  0.73860688    -0.09400
C1363       C  0.22886300  0.73140385  0.75861701     0.06000
C1364       C  0.21059887  0.71720950  0.77329446    -0.13700
Br1365     Br  0.22609573  0.67394667  0.82451434    -0.05800
Br1366     Br  0.10916520  0.65017667  0.77031630    -0.00200
Br1367     Br  0.25946147  0.67484845  0.70640292     0.00300
Br1368     Br  0.19057306  0.73462168  0.80007890    -0.04100
Br1369     Br  0.18108188  0.64011059  0.85776516     0.00400
Br1370     Br  0.15483334  0.68146146  0.73574008    -0.03400
Br1371     Br  0.21713390  0.64046703  0.74262227    -0.04300
Br1372     Br  0.23313173  0.76857546  0.76482548    -0.00300
C1373       C  0.12372980  0.55601785  0.82280664     0.01100
C1374       C  0.12817149  0.53855063  0.84400145     0.03900
C1375       C  0.13653857  0.51266861  0.83909567    -0.12100
C1376       C  0.14042533  0.50427190  0.81310435     0.23200
C1377       C  0.13381561  0.52091712  0.79191748    -0.12700
C1378       C  0.12590532  0.54693998  0.79671506     0.04600
C1379       C  0.15511176  0.47971783  0.80797957     0.27000
C1380       C  0.18262186  0.48066010  0.80618191    -0.13400
C1381       C  0.19683335  0.45817987  0.79886509     0.05100
C1382       C  0.18347738  0.43482437  0.79257327    -0.09400
C1383       C  0.15605582  0.43333241  0.79656835     0.06000
C1384       C  0.14191911  0.45588521  0.80416185    -0.13700
Br1385     Br  0.13649726  0.50809495  0.75636029    -0.05800
Br1386     Br  0.12546763  0.55060708  0.87980851    -0.00200
Br1387     Br  0.23472000  0.45913794  0.79920520     0.00300
Br1388     Br  0.10442371  0.45455480  0.80876309    -0.04100
Br1389     Br  0.11868072  0.57019075  0.76745450     0.00400
Br1390     Br  0.14406835  0.48894750  0.86784442    -0.03400
Br1391     Br  0.20076730  0.51306418  0.81335392    -0.04300
Br1392     Br  0.13730484  0.40099884  0.79092141    -0.00300
C1393       C  0.83933278  0.73887529  0.75862616     0.01100
C1394       C  0.86383066  0.73617816  0.74587253     0.03900
C1395       C  0.88583528  0.72668927  0.75983015    -0.12100
C1396       C  0.88352039  0.71919942  0.78636466     0.23200
C1397       C  0.85916763  0.72124112  0.79903019    -0.12700
C1398       C  0.83710384  0.73108952  0.78530491     0.04600
C1399       C  0.90722948  0.71040679  0.80102593     0.27000
C1400       C  0.91687244  0.68455119  0.79807686    -0.13400
C1401       C  0.94240111  0.67811850  0.80680622     0.05100
C1402       C  0.95746072  0.69710733  0.81999899    -0.09400
C1403       C  0.94636034  0.72177015  0.82591231     0.06000
C1404       C  0.92170359  0.72879337  0.81562130    -0.13700
Br1405     Br  0.85641633  0.71094489  0.83544996    -0.05800
Br1406     Br  0.86752143  0.74389051  0.70884264    -0.00200
Br1407     Br  0.95762153  0.64442995  0.79838615     0.00300
Br1408     Br  0.90882556  0.76428807  0.81952017    -0.04100
Br1409     Br  0.80437920  0.73482066  0.80391696     0.00400
Br1410     Br  0.91955393  0.72436301  0.74276081    -0.03400
Br1411     Br  0.89556954  0.65862861  0.78076041    -0.04300
Br1412     Br  0.96555643  0.74624385  0.84741111    -0.00300
C1413       C  0.64441019  0.87486958  0.81366916     0.01100
C1414       C  0.63529515  0.86080706  0.83577658     0.03900
C1415       C  0.62977989  0.87404109  0.85937715    -0.12100
C1416       C  0.63242115  0.90153459  0.86091597     0.23200
C1417       C  0.64053427  0.91577101  0.83861782    -0.12700
C1418       C  0.64681933  0.90249902  0.81515473     0.04600
C1419       C  0.62856924  0.91491617  0.88663821     0.27000
C1420       C  0.60312345  0.91956348  0.89644895    -0.13400
C1421       C  0.59966594  0.92795832  0.92265731     0.05100
C1422       C  0.62177035  0.93264965  0.93882888    -0.09400
C1423       C  0.64712419  0.93065124  0.92791811     0.06000
C1424       C  0.65054297  0.92096753  0.90231137    -0.13700
Br1425     Br  0.64398214  0.95342809  0.84067715    -0.05800
Br1426     Br  0.62956442  0.82337590  0.83384564    -0.00200
Br1427     Br  0.56472265  0.93089004  0.93671651     0.00300
Br1428     Br  0.68546452  0.91407307  0.88943056    -0.04100
Br1429     Br  0.66081376  0.92220741  0.78598725     0.00400
Br1430     Br  0.61975537  0.85430065  0.89016359    -0.03400
Br1431     Br  0.57310192  0.91298903  0.87425043    -0.04300
Br1432     Br  0.67739635  0.94151439  0.94800008    -0.00300
C1433       C  0.78218706  0.92646385  0.61150679     0.01100
C1434       C  0.79677339  0.92155379  0.58834451     0.03900
C1435       C  0.81296305  0.94120618  0.57775748    -0.12100
C1436       C  0.81428244  0.96597696  0.58978599     0.23200
C1437       C  0.79952102  0.97110369  0.61254399    -0.12700
C1438       C  0.78361166  0.95148083  0.62346605     0.04600
C1439       C  0.82997049  0.98744502  0.57805876     0.27000
C1440       C  0.85496593  0.99336264  0.58833891    -0.13400
C1441       C  0.86654423  0.01776409  0.58259045     0.05100
C1442       C  0.85345075  0.03576505  0.56591197    -0.09400
C1443       C  0.83025713  0.02821915  0.55293724     0.06000
C1444       C  0.81825703  0.00429764  0.55931854    -0.13700
Br1445     Br  0.80107824  0.00537965  0.62869210    -0.05800
Br1446     Br  0.79354037  0.88870225  0.56970319    -0.00200
Br1447     Br  0.89886282  0.02766168  0.59952970     0.00300
Br1448     Br  0.78452448  0.99579060  0.54440633    -0.04100
Br1449     Br  0.76473212  0.95918600  0.65541169     0.00400
Br1450     Br  0.83326846  0.93450802  0.54657478    -0.03400
Br1451     Br  0.87212286  0.96885032  0.61185790    -0.04300
Br1452     Br  0.81400865  0.05178743  0.52784597    -0.00300
C1453       C  0.52599850  0.59862399  0.49706702     0.01100
C1454       C  0.53676181  0.59010888  0.47278364     0.03900
C1455       C  0.52136560  0.57565918  0.45516744    -0.12100
C1456       C  0.49609404  0.56772736  0.46241065     0.23200
C1457       C  0.48691859  0.57248596  0.48789993    -0.12700
C1458       C  0.50252649  0.58644860  0.50577563     0.04600
C1459       C  0.48085067  0.55115790  0.44433812     0.27000
C1460       C  0.46678431  0.56272829  0.42350956    -0.13400
C1461       C  0.45482436  0.54680468  0.40452644     0.05100
C1462       C  0.45323748  0.51919645  0.40869657    -0.09400
C1463       C  0.47010558  0.50770955  0.42803179     0.06000
C1464       C  0.48340249  0.52372650  0.44601126    -0.13700
Br1465     Br  0.45328027  0.55890261  0.49845770    -0.05800
Br1466     Br  0.57367863  0.59379543  0.46484835    -0.00200
Br1467     Br  0.44802374  0.56269736  0.37051569     0.00300
Br1468     Br  0.50589804  0.50825302  0.47270144    -0.04100
Br1469     Br  0.49428741  0.58286993  0.54271390     0.00400
Br1470     Br  0.53516870  0.56575221  0.42126203    -0.03400
Br1471     Br  0.46479030  0.60054086  0.42059553    -0.04300
Br1472     Br  0.47817483  0.47043903  0.42853198    -0.00300
C1473       C  0.54454749  0.70561991  0.62801782     0.01100
C1474       C  0.56562479  0.72208808  0.62143467     0.03900
C1475       C  0.57911363  0.73545504  0.64133729    -0.12100
C1476       C  0.57083623  0.73340038  0.66760006     0.23200
C1477       C  0.55070953  0.71597748  0.67439974    -0.12700
C1478       C  0.53761499  0.70194684  0.65461938     0.04600
C1479       C  0.58313030  0.75024351  0.68769748     0.27000
C1480       C  0.60500557  0.74098394  0.70190204    -0.13400
C1481       C  0.61923575  0.75823758  0.71797412     0.05100
C1482       C  0.61219695  0.78519429  0.71895392    -0.09400
C1483       C  0.58953728  0.79412519  0.70542425     0.06000
C1484       C  0.57465110  0.77646304  0.69040757    -0.13700
Br1485     Br  0.54146929  0.71123615  0.71080296    -0.05800
Br1486     Br  0.57491938  0.72807033  0.58515950    -0.00200
Br1487     Br  0.64973735  0.74485463  0.73639612     0.00300
Br1488     Br  0.54305653  0.78818041  0.67269305    -0.04100
Br1489     Br  0.51062983  0.67729509  0.66412989     0.00400
Br1490     Br  0.60931639  0.75631555  0.63287954    -0.03400
Br1491     Br  0.61635632  0.70496367  0.69773805    -0.04300
Br1492     Br  0.57902899  0.83060302  0.70684430    -0.00300
C1493       C  0.34270499  0.73141778  0.65035179     0.01100
C1494       C  0.34069975  0.72745296  0.62288236     0.03900
C1495       C  0.36158262  0.71569845  0.60915694    -0.12100
C1496       C  0.38470695  0.70849184  0.62257574     0.23200
C1497       C  0.38608503  0.71069433  0.65013087    -0.12700
C1498       C  0.36495569  0.72168050  0.66406928     0.04600
C1499       C  0.40877307  0.70211149  0.60764151     0.27000
C1500       C  0.41671874  0.67585926  0.60369264    -0.13400
C1501       C  0.44202729  0.67036265  0.59406062     0.05100
C1502       C  0.45911329  0.69120827  0.58818520    -0.09400
C1503       C  0.44974042  0.71728880  0.58884573     0.06000
C1504       C  0.42479169  0.72279456  0.59900358    -0.13700
Br1505     Br  0.41751130  0.69964752  0.66858944    -0.05800
Br1506     Br  0.31045707  0.73974168  0.60330014    -0.00200
Br1507     Br  0.45389221  0.63447077  0.59091525     0.00300
Br1508     Br  0.41324936  0.75878951  0.60283127    -0.04100
Br1509     Br  0.36633042  0.72226433  0.70202329     0.00400
Br1510     Br  0.35930120  0.71044409  0.57168322    -0.03400
Br1511     Br  0.39340461  0.64768578  0.61280301    -0.04300
Br1512     Br  0.47147913  0.74549120  0.57627776    -0.00300
C1513       C  0.66055413  0.63566625  0.59211127     0.01100
C1514       C  0.65439789  0.65688789  0.60881751     0.03900
C1515       C  0.67461203  0.67007665  0.62208862    -0.12100
C1516       C  0.70084574  0.66168856  0.61931291     0.23200
C1517       C  0.70717051  0.64156439  0.60156534    -0.12700
C1518       C  0.68709376  0.62894044  0.58754475     0.04600
C1519       C  0.72162634  0.67489449  0.63461638     0.27000
C1520       C  0.73401659  0.69702363  0.62395403    -0.13400
C1521       C  0.74935560  0.71317405  0.64014643     0.05100
C1522       C  0.75250033  0.70692978  0.66711698    -0.09400
C1523       C  0.74229614  0.68318651  0.67700284     0.06000
C1524       C  0.72675712  0.66724268  0.66077003    -0.13700
Br1525     Br  0.74331429  0.63122504  0.59683987    -0.05800
Br1526     Br  0.61841134  0.66717524  0.61495801    -0.00200
Br1527     Br  0.76332327  0.74512947  0.62547276     0.00300
Br1528     Br  0.71136072  0.63560898  0.67458532    -0.04100
Br1529     Br  0.69607039  0.60305702  0.56137733     0.00400
Br1530     Br  0.66651114  0.69959840  0.64440265    -0.03400
Br1531     Br  0.72828793  0.70603113  0.58746092    -0.04300
Br1532     Br  0.74930716  0.67261262  0.71287586    -0.00300
C1533       C  0.62571569  0.54698250  0.58734589     0.01100
C1534       C  0.62527803  0.52780050  0.56735522     0.03900
C1535       C  0.63280222  0.50168523  0.57310267    -0.12100
C1536       C  0.64038834  0.49450956  0.59884106     0.23200
C1537       C  0.63909829  0.51320082  0.61913137    -0.12700
C1538       C  0.63197904  0.53938728  0.61341217     0.04600
C1539       C  0.65244178  0.46823130  0.60390900     0.27000
C1540       C  0.63695916  0.44661642  0.61113485    -0.13400
C1541       C  0.64865524  0.42166089  0.61517876     0.05100
C1542       C  0.67623424  0.41855089  0.61335512    -0.09400
C1543       C  0.69149234  0.44022307  0.60523055     0.06000
C1544       C  0.67966809  0.46491825  0.60082570    -0.13700
Br1545     Br  0.64813859  0.50300535  0.65461059    -0.05800
Br1546     Br  0.61655803  0.53747990  0.53163120    -0.00200
Br1547     Br  0.62655594  0.39222961  0.62352629     0.00300
Br1548     Br  0.70091003  0.49470218  0.59126950    -0.04100
Br1549     Br  0.63099000  0.56485921  0.64147721     0.00400
Br1550     Br  0.63429842  0.47588488  0.54546111    -0.03400
Br1551     Br  0.59990801  0.45177610  0.61682083    -0.04300
Br1552     Br  0.72854949  0.43609753  0.59837978    -0.00300
C1553       C  0.61527661  0.74118968  0.52389210     0.01100
C1554       C  0.63410810  0.73768476  0.54396465     0.03900
C1555       C  0.64508980  0.75968898  0.55631078    -0.12100
C1556       C  0.63805152  0.78523861  0.54793388     0.23200
C1557       C  0.61894391  0.78880458  0.52819188    -0.12700
C1558       C  0.60738713  0.76679067  0.51632377     0.04600
C1559       C  0.65230657  0.80791754  0.55899034     0.27000
C1560       C  0.64295366  0.82043012  0.58170849    -0.13400
C1561       C  0.65972357  0.83667349  0.59633361     0.05100
C1562       C  0.68590673  0.84021608  0.58818795    -0.09400
C1563       C  0.69415178  0.83014804  0.56383748     0.06000
C1564       C  0.67719175  0.81426940  0.54905051    -0.13700
Br1565     Br  0.60962363  0.82380031  0.51670537    -0.05800
Br1566     Br  0.64695457  0.70294724  0.55263977    -0.00200
Br1567     Br  0.64728807  0.85189668  0.62864712     0.00300
Br1568     Br  0.68826074  0.80012838  0.51576160    -0.04100
Br1569     Br  0.58118681  0.77171059  0.48918352     0.00400
Br1570     Br  0.67077031  0.75494005  0.58398990    -0.03400
Br1571     Br  0.60760309  0.81420805  0.59328936    -0.04300
Br1572     Br  0.72884243  0.83770823  0.55111507    -0.00300
C1573       C  0.61453956  0.69717533  0.43938302     0.01100
C1574       C  0.59554074  0.69549837  0.41918654     0.03900
C1575       C  0.60277415  0.70005257  0.39289793    -0.12100
C1576       C  0.62845105  0.70814465  0.38699909     0.23200
C1577       C  0.64762865  0.70882864  0.40702943    -0.12700
C1578       C  0.64089519  0.70238035  0.43297125     0.04600
C1579       C  0.63468124  0.71897214  0.36065828     0.27000
C1580       C  0.64985739  0.70437766  0.34276971    -0.13400
C1581       C  0.65961700  0.71652265  0.31992031     0.05100
C1582       C  0.65339038  0.74313488  0.31451182    -0.09400
C1583       C  0.63596616  0.75678120  0.33118625     0.06000
C1584       C  0.62712652  0.74494365  0.35445207    -0.13700
Br1585     Br  0.68265515  0.72069912  0.39935853    -0.05800
Br1586     Br  0.55911379  0.69007260  0.42755127    -0.00200
Br1587     Br  0.68286393  0.69699352  0.29729497     0.00300
Br1588     Br  0.60534279  0.76471267  0.37836817    -0.04100
Br1589     Br  0.66787528  0.70085802  0.45978762     0.00400
Br1590     Br  0.57727457  0.69677913  0.36499622    -0.03400
Br1591     Br  0.65754286  0.66790093  0.35005325    -0.04300
Br1592     Br  0.62312124  0.79138042  0.32175788    -0.00300
loop_ 
_geom_bond_atom_site_label_1 
_geom_bond_atom_site_label_2 
_geom_bond_distance 
_geom_bond_site_symmetry_2 
_ccdc_geom_bond_type 
C1            N2   1.357       .  A
C1            N6   1.352       .  A
C1         C1573   1.477       .  S
N2            C3   1.362       .  A
C3            N4   1.362       .  A
C3           C26   1.478       .  S
N4            C5   1.361       .  A
C5            N6   1.352       .  A
C5         C1553   1.472       .  S
C7            N8   1.359       .  A
C7           N12   1.353       .  A
C7         C1533   1.483       .  S
N8            C9   1.364       .  A
C9           N10   1.360       .  A
C9           C21   1.480       .  S
N10          C11   1.360       .  A
C11          N12   1.354       .  A
C11        C1513   1.476       .  S
C13          N14   1.353       .  A
C13          N18   1.358       .  A
C13        C1502   1.474       .  S
N14          C15   1.352       .  A
C15          N16   1.356       .  A
C15        C1473   1.469       .  S
N16          C17   1.356       .  A
C17          N18   1.364       .  A
C17          C24   1.473       .  S
C19          C20   1.529       .  S
C19          C25   1.543       .  S
C19          C23   1.536       .  S
C19        C1453   1.532       .  S
C20          H27   1.090       .  S
C20          C21   1.361       .  D
C21          C22   1.543       .  S
C22          C26   1.539       .  S
C22          C24   1.545       .  S
C22          H28   1.111       .  S
C23          H29   1.083       .  S
C23          C24   1.362       .  D
C25          H30   1.083       .  S
C25          C26   1.366       .  D
In31         O33   2.272       .  S
In31         O34   2.233       .  S
In31         O42   2.250       .  S
In31         O36   2.242       .  S
In31         O38   2.240       .  S
In31         O39   2.247       .  S
In31         O40   2.245       .  S
In31         O43   2.234       .  S
C32          C67   1.461       .  S
C32          O38   1.259       .  A
C32          O40   1.263       .  A
O33          C41   1.261       .  A
O34          C41   1.254       .  A
C35        C1433   1.486       .  S
C35          O42   1.260       .  A
C35          O36   1.256       .  A
C37        C1562   1.473       .  S
C37          O39   1.263       .  A
C37          O43   1.263       .  A
C41          C45   1.462       .  S
In44         O46   2.265       .  S
In44         O47   2.240       .  S
In44         O55   2.242       .  S
In44         O49   2.263       .  S
In44         O51   2.256       .  S
In44         O52   2.248       .  S
In44         O53   2.240       .  S
In44         O56   2.234       .  S
C45          O51   1.259       .  A
C45          O53   1.259       .  A
O46          C54   1.260       .  A
O47          C54   1.255       .  A
C48        C1413   1.486       .  S
C48          O55   1.258       .  A
C48          O49   1.260       .  A
C50        C1482   1.479       .  S
C50          O52   1.264       .  A
C50          O56   1.261       .  A
C54          C58   1.462       .  S
In57         O59   2.251       .  S
In57         O60   2.244       .  S
In57         O68   2.248       .  S
In57         O62   2.249       .  S
In57         O64   2.258       .  S
In57         O65   2.240       .  S
In57         O66   2.236       .  S
In57         O69   2.218       .  S
C58          O64   1.260       .  A
C58          O66   1.258       .  A
O59          C67   1.259       .  A
O60          C67   1.256       .  A
C61        C1393   1.487       .  S
C61          O68   1.259       .  A
C61          O62   1.257       .  A
C63        C1522   1.477       .  S
C63          O65   1.265       .  A
C63          O69   1.264       .  A
C70          N71   1.354       .  A
C70          N75   1.356       .  A
C70        C1373   1.473       .  S
N71          C72   1.354       .  A
C72          N73   1.357       .  A
C72        C1353   1.462       .  S
N73          C74   1.358       .  A
C74          N75   1.360       .  A
C74          C95   1.474       .  S
C76          N77   1.355       .  A
C76          N81   1.354       .  A
C76        C1333   1.479       .  S
N77          C78   1.362       .  A
C78          N79   1.365       .  A
C78          C90   1.484       .  S
N79          C80   1.364       .  A
C80          N81   1.356       .  A
C80        C1313   1.503       .  S
C82          N83   1.351   1_655  A
C82          N87   1.357       .  A
C82        C1402   1.471       .  S
N83          C84   1.350       .  A
C84          N85   1.359       .  A
C84        C1293   1.463       .  S
N85          C86   1.360       .  A
C86          N87   1.365   1_455  A
C86          C93   1.480       .  S
C88          C89   1.541       .  S
C88          C94   1.539       .  S
C88          C92   1.526       .  S
C88        C1273   1.537       .  S
C89          H96   1.099       .  S
C89          C90   1.367       .  D
C90          C91   1.543       .  S
C91          C95   1.540       .  S
C91          C93   1.544       .  S
C91          H97   1.109       .  S
C92          H98   1.084   1_455  S
C92          C93   1.360       .  D
C94          H99   1.087       .  S
C94          C95   1.366       .  D
In100       O102   2.258       .  S
In100       O103   2.232       .  S
In100       O111   2.245       .  S
In100       O105   2.254       .  S
In100       O107   2.251       .  S
In100       O108   2.219       .  S
In100       O109   2.250       .  S
In100       O112   2.277       .  S
C101        C119   1.464       .  S
C101        O107   1.258       .  A
C101        O109   1.260       .  A
O102        C110   1.264       .  A
O103        C110   1.261       .  A
C104       C1262   1.479       .  S
C104        O111   1.258       .  A
C104        O105   1.259       .  A
C106        C127   1.461       .  S
C106        O108   1.258       .  A
C106        O112   1.262       .  A
C110       C1322   1.495       .  S
In113       O115   2.224       .  S
In113       O116   2.236       .  S
In113       O124   2.252       .  S
In113       O118   2.264       .  S
In113       O120   2.263       .  S
In113       O121   2.252       .  S
In113       O122   2.235       .  S
In113       O125   2.245       .  S
C114        C132   1.462       .  S
C114        O120   1.263       .  A
C114        O122   1.257       .  A
O115        C123   1.259       .  A
O116        C123   1.261       .  A
C117       C1493   1.483       .  S
C117        O124   1.253       .  A
C117        O118   1.257       .  A
C119        O121   1.263       .  A
C119        O125   1.261       .  A
C123       C1362   1.460       .  S
In126       O128   2.249       .  S
In126       O129   2.231       .  S
In126       O137   2.236       .  S
In126       O131   2.262       .  S
In126       O133   2.284       .  S
In126       O134   2.237       .  S
In126       O135   2.214       .  S
In126       O138   2.250       .  S
C127        O133   1.264       .  A
C127        O135   1.253       .  A
O128        C136   1.263       .  A
O129        C136   1.263       .  A
C130       C1233   1.474       .  S
C130        O137   1.258       .  A
C130        O131   1.260       .  A
C132        O134   1.262       .  A
C132        O138   1.261       .  A
C136       C1302   1.474       .  S
C139        N140   1.349       .  A
C139        N144   1.359       .  A
C139       C1213   1.467       .  S
N140        C141   1.349       .  A
C141        N142   1.363       .  A
C141       C1193   1.472       .  S
N142        C143   1.367       .  A
C143        N144   1.365       .  A
C143        C164   1.490       .  S
C145        N146   1.354       .  A
C145        N150   1.354       .  A
C145       C1182   1.487       .  S
N146        C147   1.360       .  A
C147        N148   1.365   1_545  A
C147        C159   1.487       .  S
N148        C149   1.365   1_565  A
C149        N150   1.354       .  A
C149       C1153   1.475   1_545  S
C151        N152   1.356       .  A
C151        N156   1.363       .  A
C151       C1422   1.487       .  S
N152        C153   1.353   1_556  A
C153        N154   1.357       .  A
C153       C1133   1.471       .  S
N154        C155   1.360       .  A
C155        N156   1.367   1_554  A
C155        C162   1.486       .  S
C157        C158   1.531       .  S
C157        C163   1.550   1_545  S
C157        C161   1.542   1_545  S
C157       C1113   1.555       .  S
C158        H165   1.087       .  S
C158        C159   1.367       .  D
C159        C160   1.540   1_545  S
C160        C164   1.541       .  S
C160        C162   1.547       .  S
C160        H166   1.110       .  S
C161        H167   1.086   1_554  S
C161        C162   1.367       .  D
C163        H168   1.079       .  S
C163        C164   1.373       .  D
In169       O171   2.249       .  S
In169       O172   2.236       .  S
In169       O180   2.241       .  S
In169       O174   2.251       .  S
In169       O176   2.273       .  S
In169       O177   2.234       .  S
In169       O178   2.234       .  S
In169       O181   2.245       .  S
C170        C183   1.464       .  S
C170        O176   1.261       .  A
C170        O178   1.256       .  A
O171        C179   1.263       .  A
O172        C179   1.262       .  A
C173       C1093   1.483       .  S
C173        O180   1.256       .  A
C173        O174   1.258       .  A
C175        C196   1.457       .  S
C175        O177   1.260       .  A
C175        O181   1.260       .  A
C179       C1162   1.479       .  S
In182       O184   2.244       .  S
In182       O185   2.263       .  S
In182       O193   2.240       .  S
In182       O187   2.246       .  S
In182       O189   2.234       .  S
In182       O190   2.259       .  S
In182       O191   2.271       .  S
In182       O194   2.223       .  S
C183        O189   1.257       .  A
C183        O191   1.261       .  A
O184        C192   1.257       .  A
O185        C192   1.257       .  A
C186       C1202   1.480       .  S
C186        O193   1.262       .  A
C186        O187   1.264       .  A
C188        C201   1.457       .  S
C188        O190   1.261       .  A
C188        O194   1.257       .  A
C192       C1582   1.482       .  S
In195       O197   2.244       .  S
In195       O198   2.242       .  S
In195       O206   2.247       .  S
In195       O200   2.253       .  S
In195       O202   2.253       .  S
In195       O203   2.226       .  S
In195       O204   2.236       .  S
In195       O207   2.256       .  S
C196        O202   1.260       .  A
C196        O204   1.257       .  A
O197        C205   1.261       .  A
O198        C205   1.262       .  A
C199       C1073   1.471       .  S
C199        O206   1.255       .  A
C199        O200   1.255       .  A
C201        O203   1.259       .  A
C201        O207   1.261       .  A
C205       C1142   1.477       .  S
C208        N209   1.359       .  A
C208        N213   1.352       .  A
C208       C1053   1.479       .  S
N209        C210   1.364       .  A
C210        N211   1.359       .  A
C210        C231   1.481       .  S
N211        C212   1.358       .  A
C212        N213   1.352       .  A
C212       C1033   1.462       .  S
C214        N215   1.353       .  A
C214        N219   1.361       .  A
C214       C1442   1.473       .  S
N215        C216   1.350       .  A
C216        N217   1.356       .  A
C216       C1013   1.462       .  S
N217        C218   1.358       .  A
C218        N219   1.368       .  A
C218        C228   1.481       .  S
C220        N221   1.347       .  A
C220        N225   1.348       .  A
C220        C993   1.469   1_655  S
N221        C222   1.355       .  A
C222        N223   1.370       .  A
C222        C973   1.494       .  S
N223        C224   1.370       .  A
C224        N225   1.359       .  A
C224        C233   1.486       .  S
C226        C227   1.540       .  S
C226        C232   1.525       .  S
C226        C230   1.537       .  S
C226        C962   1.537       .  S
C227        H234   1.085       .  S
C227        C228   1.366       .  D
C228        C229   1.550       .  S
C229        C233   1.539       .  S
C229        C231   1.547       .  S
C229        H235   1.110       .  S
C230        H236   1.085       .  S
C230        C231   1.365       .  D
C232        H237   1.087       .  S
C232        C233   1.366       .  D
In238       O240   2.239       .  S
In238       O241   2.246       .  S
In238       O249   2.241       .  S
In238       O243   2.241       .  S
In238       O245   2.236       .  S
In238       O246   2.261       .  S
In238       O247   2.248       .  S
In238       O250   2.240       .  S
C239        C265   1.458       .  S
C239        O245   1.259       .  A
C239        O247   1.260       .  A
O240        C248   1.258       .  A
O241        C248   1.258       .  A
C242        C982   1.489       .  S
C242        O249   1.263       .  A
C242        O243   1.263       .  A
C244        C257   1.460       .  S
C244        O246   1.258       .  A
C244        O250   1.256       .  A
C248        C933   1.482       .  S
In251       O253   2.256       .  S
In251       O254   2.236       .  S
In251       O262   2.238       .  S
In251       O256   2.289       .  S
In251       O258   2.256       .  S
In251       O259   2.236       .  S
In251       O260   2.260       .  S
In251       O263   2.257       .  S
C252        C270   1.468       .  S
C252        O258   1.259       .  A
C252        O260   1.259       .  A
O253        C261   1.264       .  A
O254        C261   1.261       .  A
C255       C1542   1.492       .  S
C255        O262   1.254       .  A
C255        O256   1.260       .  A
C257        O259   1.257       .  A
C257        O263   1.260       .  A
C261       C1042   1.475       .  S
In264       O266   2.246       .  S
In264       O267   2.229       .  S
In264       O275   2.248       .  S
In264       O269   2.250       .  S
In264       O271   2.258       .  S
In264       O272   2.257       .  S
In264       O273   2.238       .  S
In264       O276   2.250       .  S
C265        O271   1.260       .  A
C265        O273   1.255       .  A
O266        C274   1.262       .  A
O267        C274   1.262       .  A
C268        C913   1.486       .  S
C268        O275   1.257       .  A
C268        O269   1.256       .  A
C270        O272   1.261       .  A
C270        O276   1.260       .  A
C274       C1022   1.469       .  S
C277        N278   1.354       .  A
C277        N282   1.354       .  A
C277        C893   1.469       .  S
N278        C279   1.360       .  A
C279        N280   1.366       .  A
C279        C300   1.485       .  S
N280        C281   1.365       .  A
C281        N282   1.355       .  A
C281        C882   1.481       .  S
C283        N284   1.357       .  A
C283        N288   1.357       .  A
C283       C1253   1.472       .  S
N284        C285   1.357       .  A
C285        N286   1.358       .  A
C285        C862   1.477       .  S
N286        C287   1.360       .  A
C287        N288   1.361       .  A
C287        C302   1.478       .  S
C289        N290   1.353       .  A
C289        N294   1.349       .  A
C289        C922   1.469       .  S
N290        C291   1.360       .  A
C291        N292   1.367       .  A
C291        C297   1.478       .  S
N292        C293   1.365       .  A
C293        N294   1.352       .  A
C293        C833   1.488       .  S
C295        C296   1.533       .  S
C295        C301   1.544       .  S
C295        C299   1.544       .  S
C295       C1122   1.556       .  S
C296        H303   1.086       .  S
C296        C297   1.366       .  D
C297        C298   1.533       .  S
C298        C302   1.540       .  S
C298        C300   1.539       .  S
C298        H304   1.110       .  S
C299        H305   1.082       .  S
C299        C300   1.371       .  D
C301        H306   1.085       .  S
C301        C302   1.370       .  D
In307       O309   2.263       .  S
In307       O310   2.232       .  S
In307       O318   2.247       .  S
In307       O312   2.269       .  S
In307       O314   2.275       .  S
In307       O315   2.248       .  S
In307       O316   2.228       .  S
In307       O319   2.228       .  S
C308        C330   1.467       .  S
C308        O314   1.264       .  A
C308        O316   1.258       .  A
O309        C317   1.260       .  A
O310        C317   1.257       .  A
C311       C1002   1.490       .  S
C311        O318   1.257       .  A
C311        O312   1.259       .  A
C313        C853   1.484       .  S
C313        O315   1.262       .  A
C313        O319   1.262       .  A
C317        C334   1.461       .  S
In320       O322   2.281       .  S
In320       O323   2.234       .  S
In320       O331   2.241       .  S
In320       O325   2.268       .  S
In320       O327   2.250       .  S
In320       O328   2.248       .  S
In320       O329   2.250       .  S
In320       O332   2.232       .  S
C321        C343   1.465       .  S
C321        O327   1.259       .  A
C321        O329   1.260       .  A
O322        C330   1.262       .  A
O323        C330   1.256       .  A
C324        C813   1.483       .  S
C324        O331   1.259       .  A
C324        O325   1.260       .  A
C326        C842   1.482       .  S
C326        O328   1.264       .  A
C326        O332   1.263       .  A
In333       O335   2.253       .  S
In333       O336   2.254       .  S
In333       O344   2.249       .  S
In333       O338   2.246       .  S
In333       O340   2.265       .  S
In333       O341   2.263       .  S
In333       O342   2.234       .  S
In333       O345   2.220       .  S
C334        O340   1.260       .  A
C334        O342   1.257       .  A
O335        C343   1.260       .  A
O336        C343   1.259       .  A
C337       C1382   1.478       .  S
C337        O344   1.257       .  A
C337        O338   1.253       .  A
C339        C873   1.477       .  S
C339        O341   1.265       .  A
C339        O345   1.260       .  A
C346        N347   1.354       .  A
C346        N351   1.349       .  A
C346        C793   1.461       .  S
N347        C348   1.361       .  A
C348        N349   1.364   1_545  A
C348        C371   1.478   1_545  S
N349        C350   1.361       .  A
C350        N351   1.351   1_565  A
C350        C782   1.471       .  S
C352        N353   1.348       .  A
C352        N357   1.358       .  A
C352       C1102   1.477   1_455  S
N353        C354   1.347       .  A
C354        N355   1.363       .  A
C354        C753   1.467       .  S
N355        C356   1.366       .  A
C356        N357   1.366       .  A
C356        C366   1.488       .  S
C358        N359   1.357       .  A
C358        N363   1.355       .  A
C358       C1242   1.474       .  S
N359        C360   1.362       .  A
C360        N361   1.359       .  A
C360        C369   1.478       .  S
N361        C362   1.359       .  A
C362        N363   1.356       .  A
C362        C742   1.490       .  S
C364        C365   1.542   1_545  S
C364        C370   1.535       .  S
C364        C368   1.538   1_545  S
C364        C953   1.544       .  S
C365        H372   1.079       .  S
C365        C366   1.369       .  D
C366        C367   1.546       .  S
C367        C371   1.533       .  S
C367        C369   1.543       .  S
C367        H373   1.109       .  S
C368        H374   1.087       .  S
C368        C369   1.363       .  D
C370        H375   1.087       .  S
C370        C371   1.364   1_545  D
In376       O378   2.239       .  S
In376       O379   2.244       .  S
In376       O387   2.227       .  S
In376       O381   2.255       .  S
In376       O383   2.261       .  S
In376       O384   2.230       .  S
In376       O385   2.234       .  S
In376       O388   2.231       .  S
C377        C399   1.462       .  S
C377        O383   1.264       .  A
C377        O385   1.256       .  A
O378        C386   1.259       .  A
O379        C386   1.260       .  A
C380       C1342   1.473       .  S
C380        O387   1.258       .  A
C380        O381   1.260       .  A
C382        C762   1.472       .  S
C382        O384   1.263       .  A
C382        O388   1.262       .  A
C386        C403   1.459       .  S
In389       O391   2.254       .  S
In389       O392   2.246       .  S
In389       O400   2.243       .  S
In389       O394   2.260       .  S
In389       O396   2.256       .  S
In389       O397   2.251       .  S
In389       O398   2.235       .  S
In389       O401   2.250       .  S
C390        C412   1.457       .  S
C390        O396   1.257       .  A
C390        O398   1.256       .  A
O391        C399   1.258       .  A
O392        C399   1.260       .  A
C393        C722   1.481       .  S
C393        O400   1.259       .  A
C393        O394   1.260       .  A
C395        C733   1.490       .  S
C395        O397   1.266       .  A
C395        O401   1.263       .  A
In402       O404   2.257       .  S
In402       O405   2.231       .  S
In402       O413   2.222       .  S
In402       O407   2.276       .  S
In402       O409   2.240       .  S
In402       O410   2.214       .  S
In402       O411   2.247       .  S
In402       O414   2.273       .  S
C403        O409   1.260       .  A
C403        O411   1.260       .  A
O404        C412   1.262       .  A
O405        C412   1.258       .  A
C406       C1222   1.474       .  S
C406        O413   1.252       .  A
C406        O407   1.257       .  A
C408        C773   1.475       .  S
C408        O410   1.257       .  A
C408        O414   1.265       .  A
C415        N416   1.358       .  A
C415        N420   1.353       .  A
C415        C693   1.478       .  S
N416        C417   1.364       .  A
C417        N418   1.365       .  A
C417        C440   1.484       .  S
N418        C419   1.364       .  A
C419        N420   1.355       .  A
C419        C682   1.486       .  S
C421        N422   1.350       .  A
C421        N426   1.357       .  A
C421        C942   1.478       .  S
N422        C423   1.350   1_556  A
C423        N424   1.363       .  A
C423        C653   1.468       .  S
N424        C425   1.365   1_554  A
C425        N426   1.363       .  A
C425        C435   1.485   1_556  S
C427        N428   1.359       .  A
C427        N432   1.353       .  A
C427       C1082   1.473       .  S
N428        C429   1.367       .  A
C429        N430   1.357       .  A
C429        C438   1.480       .  S
N430        C431   1.356       .  A
C431        N432   1.353       .  A
C431        C642   1.464       .  S
C433        C434   1.541   1_554  S
C433        C439   1.546       .  S
C433        C437   1.527       .  S
C433       C1282   1.547   1_554  S
C434        H441   1.086       .  S
C434        C435   1.370   1_556  D
C435        C436   1.543       .  S
C436        C440   1.542       .  S
C436        C438   1.547       .  S
C436        H442   1.110       .  S
C437        H443   1.082       .  S
C437        C438   1.358       .  D
C439        H444   1.083       .  S
C439        C440   1.368       .  D
In445       O447   2.249       .  S
In445       O448   2.233       .  S
In445       O456   2.231       .  S
In445       O450   2.257       .  S
In445       O452   2.256       .  S
In445       O453   2.233       .  S
In445       O454   2.239       .  S
In445       O457   2.237       .  S
C446        C468   1.460       .  S
C446        O452   1.260       .  A
C446        O454   1.257       .  A
O447        C455   1.261       .  A
O448        C455   1.259       .  A
C449       C1173   1.476       .  S
C449        O456   1.256       .  A
C449        O450   1.257       .  A
C451        C662   1.469       .  S
C451        O453   1.262       .  A
C451        O457   1.263       .  A
C455        C472   1.458       .  S
In458       O460   2.252       .  S
In458       O461   2.237       .  S
In458       O469   2.234       .  S
In458       O463   2.269       .  S
In458       O465   2.273       .  S
In458       O466   2.220       .  S
In458       O467   2.241       .  S
In458       O470   2.245       .  S
C459        C481   1.468       .  S
C459        O465   1.263       .  A
C459        O467   1.255       .  A
O460        C468   1.260       .  A
O461        C468   1.259       .  A
C462        C613   1.473       .  S
C462        O469   1.255       .  A
C462        O463   1.261       .  A
C464        C633   1.475       .  S
C464        O466   1.262       .  A
C464        O470   1.264       .  A
In471       O473   2.265       .  S
In471       O474   2.248       .  S
In471       O482   2.254       .  S
In471       O476   2.255       .  S
In471       O478   2.257       .  S
In471       O479   2.246       .  S
In471       O480   2.237       .  S
In471       O483   2.254       .  S
C472        O478   1.258       .  A
C472        O480   1.255       .  A
O473        C481   1.260       .  A
O474        C481   1.260       .  A
C475       C1062   1.472       .  S
C475        O482   1.258       .  A
C475        O476   1.257       .  A
C477        C673   1.490       .  S
C477        O479   1.264       .  A
C477        O483   1.263       .  A
C484        N485   1.355       .  A
C484        N489   1.361       .  A
C484        C822   1.490       .  S
N485        C486   1.353       .  A
C486        N487   1.357       .  A
C486        C593   1.469       .  S
N487        C488   1.358       .  A
C488        N489   1.366       .  A
C488        C509   1.482       .  S
C490        N491   1.358       .  A
C490        N495   1.353       .  A
C490        C713   1.477       .  S
N491        C492   1.364       .  A
C492        N493   1.360       .  A
C492        C507   1.479       .  S
N493        C494   1.359       .  A
C494        N495   1.356       .  A
C494        C573   1.472       .  S
C496        N497   1.361       .  A
C496        N501   1.350       .  A
C496        C622   1.484       .  S
N497        C498   1.368       .  A
C498        N499   1.360       .  A
C498        C504   1.485       .  S
N499        C500   1.359       .  A
C500        N501   1.349       .  A
C500        C553   1.462       .  S
C502        C503   1.528       .  S
C502        C508   1.541       .  S
C502        C506   1.539       .  S
C502       C1462   1.533       .  S
C503        H510   1.087       .  S
C503        C504   1.361       .  D
C504        C505   1.549       .  S
C505        C509   1.546       .  S
C505        C507   1.544       .  S
C505        H511   1.110       .  S
C506        H512   1.083       .  S
C506        C507   1.363       .  D
C508        H513   1.088       .  S
C508        C509   1.364       .  D
In514       O516   2.234       .  S
In514       O517   2.242       .  S
In514       O525   2.242       .  S
In514       O519   2.233       .  S
In514       O521   2.247       .  S
In514       O522   2.233       .  S
In514       O523   2.238       .  S
In514       O526   2.257       .  S
C515        C546   1.458       .  S
C515        O521   1.260       .  A
C515        O523   1.260       .  A
O516        C524   1.263       .  A
O517        C524   1.262       .  A
C518        C802   1.475       .  S
C518        O525   1.256       .  A
C518        O519   1.255       .  A
C520        C533   1.458       .  S
C520        O522   1.257       .  A
C520        O526   1.260       .  A
C524        C602   1.469       .  S
In527       O529   2.249       .  S
In527       O530   2.246       .  S
In527       O538   2.213       .  S
In527       O532   2.252       .  S
In527       O534   2.251       .  S
In527       O535   2.247       .  S
In527       O536   2.271       .  S
In527       O539   2.225       .  S
C528        C541   1.470       .  S
C528        O534   1.256       .  A
C528        O536   1.261       .  A
O529        C537   1.260       .  A
O530        C537   1.257       .  A
C531        C562   1.466       .  S
C531        O538   1.259       .  A
C531        O532   1.263       .  A
C533        O535   1.263       .  A
C533        O539   1.260       .  A
C537        C902   1.482       .  S
In540       O542   2.235       .  S
In540       O543   2.257       .  S
In540       O551   2.253       .  S
In540       O545   2.268       .  S
In540       O547   2.262       .  S
In540       O548   2.243       .  S
In540       O549   2.255       .  S
In540       O552   2.256       .  S
C541        O547   1.260       .  A
C541        O549   1.261       .  A
O542        C550   1.263       .  A
O543        C550   1.263       .  A
C544        C702   1.489       .  S
C544        O551   1.257       .  A
C544        O545   1.260       .  A
C546        O548   1.255       .  A
C546        O552   1.258       .  A
C550        C582   1.480       .  S
C553        C554   1.408       .  A
C553        C558   1.408       .  A
C554        C555   1.402       .  A
C554       Br566   1.930       .  S
C555        C556   1.407       .  A
C555       Br570   1.929       .  S
C556        C559   1.474       .  S
C556        C557   1.408       .  A
C557        C558   1.404       .  A
C557       Br565   1.929       .  S
C558       Br569   1.930       .  S
C559        C560   1.408       .  A
C559        C564   1.405       .  A
C560        C561   1.408       .  A
C560       Br571   1.927       .  S
C561        C562   1.409       .  A
C561       Br567   1.928       .  S
C562        C563   1.408       .  A
C563        C564   1.398       .  A
C563       Br572   1.931       .  S
C564       Br568   1.929       .  S
C573        C574   1.407       .  A
C573        C578   1.409       .  A
C574        C575   1.405       .  A
C574       Br586   1.932       .  S
C575        C576   1.414       .  A
C575       Br590   1.932       .  S
C576        C579   1.487       .  S
C576        C577   1.410       .  A
C577        C578   1.408       .  A
C577       Br585   1.928       .  S
C578       Br589   1.929       .  S
C579        C580   1.410       .  A
C579        C584   1.410       .  A
C580        C581   1.405       .  A
C580       Br591   1.931       .  S
C581        C582   1.409       .  A
C581       Br587   1.930       .  S
C582        C583   1.415       .  A
C583        C584   1.410       .  A
C583       Br592   1.930       .  S
C584       Br588   1.930       .  S
C593        C594   1.407       .  A
C593        C598   1.409       .  A
C594        C595   1.403       .  A
C594       Br606   1.929       .  S
C595        C596   1.408       .  A
C595       Br610   1.930       .  S
C596        C599   1.479       .  S
C596        C597   1.410       .  A
C597        C598   1.407       .  A
C597       Br605   1.928       .  S
C598       Br609   1.929       .  S
C599        C600   1.411       .  A
C599        C604   1.404       .  A
C600        C601   1.411       .  A
C600       Br611   1.927       .  S
C601        C602   1.409       .  A
C601       Br607   1.927       .  S
C602        C603   1.409       .  A
C603        C604   1.399       .  A
C603       Br612   1.931       .  S
C604       Br608   1.926       .  S
C613        C614   1.409       .  A
C613        C618   1.409       .  A
C614        C615   1.405       .  A
C614       Br626   1.931       .  S
C615        C616   1.409       .  A
C615       Br630   1.931       .  S
C616        C619   1.485       .  S
C616        C617   1.410       .  A
C617        C618   1.410       .  A
C617       Br625   1.928       .  S
C618       Br629   1.928       .  S
C619        C620   1.407       .  A
C619        C624   1.408       .  A
C620        C621   1.404       .  A
C620       Br631   1.933       .  S
C621        C622   1.416       .  A
C621       Br627   1.935       .  S
C622        C623   1.414       .  A
C623        C624   1.411       .  A
C623       Br632   1.929       .  S
C624       Br628   1.928       .  S
C633        C634   1.412       .  A
C633        C638   1.415       .  A
C634        C635   1.409       .  A
C634       Br646   1.928       .  S
C635        C636   1.408       .  A
C635       Br650   1.929       .  S
C636        C639   1.476       .  S
C636        C637   1.405       .  A
C637        C638   1.401       .  A
C637       Br645   1.933       .  S
C638       Br649   1.934       .  S
C639        C640   1.407       .  A
C639        C644   1.410       .  A
C640        C641   1.401       .  A
C640       Br651   1.931       .  S
C641        C642   1.408       .  A
C641       Br647   1.929       .  S
C642        C643   1.407       .  A
C643        C644   1.406       .  A
C643       Br652   1.931       .  S
C644       Br648   1.927       .  S
C653        C654   1.408       .  A
C653        C658   1.410       .  A
C654        C655   1.407       .  A
C654       Br666   1.928       .  S
C655        C656   1.410       .  A
C655       Br670   1.930       .  S
C656        C659   1.480       .  S
C656        C657   1.407       .  A
C657        C658   1.405       .  A
C657       Br665   1.929       .  S
C658       Br669   1.930       .  S
C659        C660   1.404       .  A
C659        C664   1.410       .  A
C660        C661   1.400       .  A
C660       Br671   1.924       .  S
C661        C662   1.411       .  A
C661       Br667   1.933       .  S
C662        C663   1.409       .  A
C663        C664   1.410       .  A
C663       Br672   1.928       .  S
C664       Br668   1.927       .  S
C673        C674   1.417       .  A
C673        C678   1.411       .  A
C674        C675   1.411       .  A
C674       Br686   1.931       .  S
C675        C676   1.411       .  A
C675       Br690   1.932       .  S
C676        C679   1.494       .  S
C676        C677   1.412       .  A
C677        C678   1.409       .  A
C677       Br685   1.931       .  S
C678       Br689   1.930       .  S
C679        C680   1.411       .  A
C679        C684   1.413       .  A
C680        C681   1.410       .  A
C680       Br691   1.931       .  S
C681        C682   1.414       .  A
C681       Br687   1.932       .  S
C682        C683   1.410       .  A
C683        C684   1.410       .  A
C683       Br692   1.927       .  S
C684       Br688   1.932       .  S
C693        C694   1.410   1_655  A
C693        C698   1.408   1_655  A
C694        C695   1.407       .  A
C694       Br706   1.930   1_455  S
C695        C696   1.409       .  A
C695       Br710   1.930       .  S
C696        C699   1.490       .  S
C696        C697   1.412       .  A
C697        C698   1.411       .  A
C697       Br705   1.927       .  S
C698       Br709   1.928       .  S
C699        C700   1.408       .  A
C699        C704   1.409       .  A
C700        C701   1.411       .  A
C700       Br711   1.929       .  S
C701        C702   1.415       .  A
C701       Br707   1.931       .  S
C702        C703   1.416       .  A
C703        C704   1.409       .  A
C703       Br712   1.932       .  S
C704       Br708   1.932       .  S
C713        C714   1.408       .  A
C713        C718   1.409       .  A
C714        C715   1.408       .  A
C714       Br726   1.928       .  S
C715        C716   1.412       .  A
C715       Br730   1.930       .  S
C716        C719   1.490       .  S
C716        C717   1.411       .  A
C717        C718   1.410       .  A
C717       Br725   1.928       .  S
C718       Br729   1.929       .  S
C719        C720   1.411       .  A
C719        C724   1.410       .  A
C720        C721   1.409       .  A
C720       Br731   1.931       .  S
C721        C722   1.413       .  A
C721       Br727   1.933       .  S
C722        C723   1.411       .  A
C723        C724   1.410       .  A
C723       Br732   1.929       .  S
C724       Br728   1.929       .  S
C733        C734   1.419       .  A
C733        C738   1.413       .  A
C734        C735   1.410       .  A
C734       Br746   1.930       .  S
C735        C736   1.408       .  A
C735       Br750   1.933       .  S
C736        C739   1.489       .  S
C736        C737   1.409       .  A
C737        C738   1.409       .  A
C737       Br745   1.930       .  S
C738       Br749   1.929       .  S
C739        C740   1.408       .  A
C739        C744   1.409       .  A
C740        C741   1.410       .  A
C740       Br751   1.930       .  S
C741        C742   1.418       .  A
C741       Br747   1.934       .  S
C742        C743   1.417       .  A
C743        C744   1.407       .  A
C743       Br752   1.930       .  S
C744       Br748   1.934       .  S
C753        C754   1.409       .  A
C753        C758   1.409       .  A
C754        C755   1.403       .  A
C754       Br766   1.930       .  S
C755        C756   1.408       .  A
C755       Br770   1.931       .  S
C756        C759   1.478       .  S
C756        C757   1.409       .  A
C757        C758   1.407       .  A
C757       Br765   1.927       .  S
C758       Br769   1.928       .  S
C759        C760   1.409       .  A
C759        C764   1.402       .  A
C760        C761   1.411       .  A
C760       Br771   1.926       .  S
C761        C762   1.412       .  A
C761       Br767   1.928       .  S
C762        C763   1.413       .  A
C763        C764   1.398       .  A
C763       Br772   1.933       .  S
C764       Br768   1.926       .  S
C773        C774   1.413       .  A
C773        C778   1.411       .  A
C774        C775   1.400       .  A
C774       Br786   1.936       .  S
C775        C776   1.404       .  A
C775       Br790   1.926       .  S
C776        C779   1.480       .  S
C776        C777   1.409       .  A
C777        C778   1.411       .  A
C777       Br785   1.927       .  S
C778       Br789   1.927       .  S
C779        C780   1.408       .  A
C779        C784   1.407       .  A
C780        C781   1.406       .  A
C780       Br791   1.929       .  S
C781        C782   1.409       .  A
C781       Br787   1.929       .  S
C782        C783   1.411       .  A
C783        C784   1.405       .  A
C783       Br792   1.931       .  S
C784       Br788   1.929       .  S
C793        C794   1.408       .  A
C793        C798   1.406       .  A
C794        C795   1.405       .  A
C794       Br806   1.929       .  S
C795        C796   1.409       .  A
C795       Br810   1.930       .  S
C796        C799   1.473       .  S
C796        C797   1.407       .  A
C797        C798   1.402       .  A
C797       Br805   1.929       .  S
C798       Br809   1.930       .  S
C799        C800   1.404       .  A
C799        C804   1.407       .  A
C800        C801   1.404       .  A
C800       Br811   1.931       .  S
C801        C802   1.416       .  A
C801       Br807   1.933       .  S
C802        C803   1.414       .  A
C803        C804   1.404       .  A
C803       Br812   1.934       .  S
C804       Br808   1.933       .  S
C813        C814   1.414       .  A
C813        C818   1.409       .  A
C814        C815   1.412       .  A
C814       Br826   1.930       .  S
C815        C816   1.410       .  A
C815       Br830   1.929       .  S
C816        C819   1.490       .  S
C816        C817   1.410       .  A
C817        C818   1.407       .  A
C817       Br825   1.930       .  S
C818       Br829   1.930       .  S
C819        C820   1.408       .  A
C819        C824   1.409       .  A
C820        C821   1.410       .  A
C820       Br831   1.930       .  S
C821        C822   1.415       .  A
C821       Br827   1.929       .  S
C822        C823   1.416       .  A
C823        C824   1.409       .  A
C823       Br832   1.933       .  S
C824       Br828   1.930       .  S
C833        C834   1.413       .  A
C833        C838   1.420       .  A
C834        C835   1.409       .  A
C834       Br846   1.928       .  S
C835        C836   1.408       .  A
C835       Br850   1.926       .  S
C836        C839   1.484       .  S
C836        C837   1.403       .  A
C837        C838   1.406       .  A
C837       Br845   1.929       .  S
C838       Br849   1.934       .  S
C839        C840   1.407       .  A
C839        C844   1.407       .  A
C840        C841   1.408       .  A
C840       Br851   1.930       .  S
C841        C842   1.416       .  A
C841       Br847   1.932       .  S
C842        C843   1.412       .  A
C843        C844   1.406       .  A
C843       Br852   1.930       .  S
C844       Br848   1.929       .  S
C853        C854   1.418       .  A
C853        C858   1.413       .  A
C854        C855   1.411       .  A
C854       Br866   1.934       .  S
C855        C856   1.411       .  A
C855       Br870   1.933       .  S
C856        C859   1.489       .  S
C856        C857   1.410       .  A
C857        C858   1.405       .  A
C857       Br865   1.933       .  S
C858       Br869   1.933       .  S
C859        C860   1.413       .  A
C859        C864   1.410       .  A
C860        C861   1.407       .  A
C860       Br871   1.928       .  S
C861        C862   1.408       .  A
C861       Br867   1.930       .  S
C862        C863   1.410       .  A
C863        C864   1.407       .  A
C863       Br872   1.929       .  S
C864       Br868   1.930       .  S
C873        C874   1.412       .  A
C873        C878   1.411       .  A
C874        C875   1.403       .  A
C874       Br886   1.935       .  S
C875        C876   1.406       .  A
C875       Br890   1.926       .  S
C876        C879   1.489       .  S
C876        C877   1.412       .  A
C877        C878   1.413       .  A
C877       Br885   1.927       .  S
C878       Br889   1.930       .  S
C879        C880   1.408       .  A
C879        C884   1.412       .  A
C880        C881   1.406       .  A
C880       Br891   1.931       .  S
C881        C882   1.411       .  A
C881       Br887   1.930       .  S
C882        C883   1.411       .  A
C883        C884   1.413       .  A
C883       Br892   1.930       .  S
C884       Br888   1.928       .  S
C893        C894   1.408       .  A
C893        C898   1.407       .  A
C894        C895   1.406   1_556  A
C894       Br906   1.928       .  S
C895        C896   1.409       .  A
C895       Br910   1.929       .  S
C896        C899   1.481       .  S
C896        C897   1.409       .  A
C897        C898   1.405   1_554  A
C897       Br905   1.928       .  S
C898       Br909   1.929       .  S
C899        C900   1.409       .  A
C899        C904   1.406       .  A
C900        C901   1.404       .  A
C900       Br911   1.935       .  S
C901        C902   1.412       .  A
C901       Br907   1.932       .  S
C902        C903   1.418       .  A
C903        C904   1.410       .  A
C903       Br912   1.932       .  S
C904       Br908   1.930       .  S
C913        C914   1.417       .  A
C913        C918   1.420       .  A
C914        C915   1.406       .  A
C914       Br926   1.933       .  S
C915        C916   1.407       .  A
C915       Br930   1.934       .  S
C916        C919   1.479       .  S
C916        C917   1.404       .  A
C917        C918   1.407       .  A
C917       Br925   1.931       .  S
C918       Br929   1.933       .  S
C919        C920   1.407       .  A
C919        C924   1.408       .  A
C920        C921   1.403       .  A
C920       Br931   1.929       .  S
C921        C922   1.409       .  A
C921       Br927   1.932       .  S
C922        C923   1.411       .  A
C923        C924   1.406       .  A
C923       Br932   1.930       .  S
C924       Br928   1.929       .  S
C933        C934   1.417       .  A
C933        C938   1.414       .  A
C934        C935   1.408       .  A
C934       Br946   1.932       .  S
C935        C936   1.406       .  A
C935       Br950   1.930       .  S
C936        C939   1.482       .  S
C936        C937   1.409       .  A
C937        C938   1.404       .  A
C937       Br945   1.934       .  S
C938       Br949   1.934       .  S
C939        C940   1.407       .  A
C939        C944   1.407       .  A
C940        C941   1.406       .  A
C940       Br951   1.930       .  S
C941        C942   1.414       .  A
C941       Br947   1.931       .  S
C942        C943   1.415       .  A
C943        C944   1.405       .  A
C943       Br952   1.934       .  S
C944       Br948   1.931       .  S
C953        C954   1.431       .  A
C953        C958   1.425       .  A
C954        C955   1.407       .  A
C954       Br966   1.941       .  S
C955        C956   1.402       .  A
C955       Br970   1.934       .  S
C956        C959   1.479   1_455  S
C956        C957   1.402   1_455  A
C957        C958   1.406   1_655  A
C957       Br965   1.934       .  S
C958       Br969   1.929   1_455  S
C959        C960   1.404       .  A
C959        C964   1.405       .  A
C960        C961   1.407       .  A
C960       Br971   1.931       .  S
C961        C962   1.423       .  A
C961       Br967   1.935       .  S
C962        C963   1.423       .  A
C963        C964   1.404       .  A
C963       Br972   1.937       .  S
C964       Br968   1.932   1_655  S
C973        C974   1.414       .  A
C973        C978   1.421       .  A
C974        C975   1.413       .  A
C974       Br986   1.925       .  S
C975        C976   1.411       .  A
C975       Br990   1.928       .  S
C976        C979   1.488       .  S
C976        C977   1.403       .  A
C977        C978   1.404       .  A
C977       Br985   1.931       .  S
C978       Br989   1.936       .  S
C979        C980   1.407       .  A
C979        C984   1.408       .  A
C980        C981   1.407       .  A
C980       Br991   1.934       .  S
C981        C982   1.419       .  A
C981       Br987   1.933       .  S
C982        C983   1.416       .  A
C983        C984   1.410       .  A
C983       Br992   1.931       .  S
C984       Br988   1.929       .  S
C993        C994   1.406       .  A
C993        C998   1.411       .  A
C994        C995   1.406       .  A
C994      Br1006   1.928       .  S
C995        C996   1.410       .  A
C995      Br1010   1.928       .  S
C996        C999   1.483       .  S
C996        C997   1.409       .  A
C997        C998   1.406       .  A
C997      Br1005   1.929       .  S
C998      Br1009   1.933       .  S
C999       C1000   1.407       .  A
C999       C1004   1.406       .  A
C1000      C1001   1.406       .  A
C1000     Br1011   1.934       .  S
C1001      C1002   1.417       .  A
C1001     Br1007   1.932       .  S
C1002      C1003   1.419       .  A
C1003      C1004   1.411       .  A
C1003     Br1012   1.931       .  S
C1004     Br1008   1.931       .  S
C1013      C1014   1.406       .  A
C1013      C1018   1.406       .  A
C1014      C1015   1.403       .  A
C1014     Br1026   1.929       .  S
C1015      C1016   1.410       .  A
C1015     Br1030   1.931       .  S
C1016      C1019   1.479       .  S
C1016      C1017   1.410       .  A
C1017      C1018   1.405       .  A
C1017     Br1025   1.928       .  S
C1018     Br1029   1.931       .  S
C1019      C1020   1.405       .  A
C1019      C1024   1.411       .  A
C1020      C1021   1.401       .  A
C1020     Br1031   1.925       .  S
C1021      C1022   1.410       .  A
C1021     Br1027   1.931       .  S
C1022      C1023   1.407       .  A
C1023      C1024   1.409       .  A
C1023     Br1032   1.926       .  S
C1024     Br1028   1.928       .  S
C1033      C1034   1.405       .  A
C1033      C1038   1.406       .  A
C1034      C1035   1.404       .  A
C1034     Br1046   1.929       .  S
C1035      C1036   1.411       .  A
C1035     Br1050   1.930       .  S
C1036      C1039   1.481       .  S
C1036      C1037   1.411       .  A
C1037      C1038   1.405       .  A
C1037     Br1045   1.930       .  S
C1038     Br1049   1.929       .  S
C1039      C1040   1.406       .  A
C1039      C1044   1.411       .  A
C1040      C1041   1.401       .  A
C1040     Br1051   1.932       .  S
C1041      C1042   1.412       .  A
C1041     Br1047   1.928       .  S
C1042      C1043   1.409       .  A
C1043      C1044   1.410       .  A
C1043     Br1052   1.927       .  S
C1044     Br1048   1.929       .  S
C1053      C1054   1.412       .  A
C1053      C1058   1.413       .  A
C1054      C1055   1.406       .  A
C1054     Br1066   1.931       .  S
C1055      C1056   1.409       .  A
C1055     Br1070   1.932       .  S
C1056      C1059   1.485       .  S
C1056      C1057   1.408       .  A
C1057      C1058   1.409       .  A
C1057     Br1065   1.928       .  S
C1058     Br1069   1.930       .  S
C1059      C1060   1.411       .  A
C1059      C1064   1.408       .  A
C1060      C1061   1.407       .  A
C1060     Br1071   1.930       .  S
C1061      C1062   1.407       .  A
C1061     Br1067   1.929       .  S
C1062      C1063   1.408       .  A
C1063      C1064   1.407       .  A
C1063     Br1072   1.928       .  S
C1064     Br1068   1.927       .  S
C1073      C1074   1.408       .  A
C1073      C1078   1.409       .  A
C1074      C1075   1.405       .  A
C1074     Br1086   1.933       .  S
C1075      C1076   1.412       .  A
C1075     Br1090   1.932       .  S
C1076      C1079   1.486       .  S
C1076      C1077   1.411       .  A
C1077      C1078   1.408       .  A
C1077     Br1085   1.929       .  S
C1078     Br1089   1.930       .  S
C1079      C1080   1.412       .  A
C1079      C1084   1.411       .  A
C1080      C1081   1.409       .  A
C1080     Br1091   1.929       .  S
C1081      C1082   1.408       .  A
C1081     Br1087   1.927       .  S
C1082      C1083   1.407       .  A
C1083      C1084   1.406       .  A
C1083     Br1092   1.927       .  S
C1084     Br1088   1.931       .  S
C1093      C1094   1.417       .  A
C1093      C1098   1.417       .  A
C1094      C1095   1.407       .  A
C1094     Br1106   1.932       .  S
C1095      C1096   1.405       .  A
C1095     Br1110   1.931       .  S
C1096      C1099   1.479       .  S
C1096      C1097   1.407       .  A
C1097      C1098   1.405       .  A
C1097     Br1105   1.934       .  S
C1098     Br1109   1.934       .  S
C1099      C1100   1.408       .  A
C1099      C1104   1.405       .  A
C1100      C1101   1.409       .  A
C1100     Br1111   1.928       .  S
C1101      C1102   1.413       .  A
C1101     Br1107   1.926       .  S
C1102      C1103   1.414       .  A
C1103      C1104   1.400       .  A
C1103     Br1112   1.934       .  S
C1104     Br1108   1.933       .  S
C1113      C1114   1.424       .  A
C1113      C1118   1.427   1_554  A
C1114      C1115   1.413   1_554  A
C1114     Br1126   1.933       .  S
C1115      C1116   1.406       .  A
C1115     Br1130   1.931       .  S
C1116      C1119   1.496       .  S
C1116      C1117   1.407       .  A
C1117      C1118   1.413       .  A
C1117     Br1125   1.931       .  S
C1118     Br1129   1.936       .  S
C1119      C1120   1.405       .  A
C1119      C1124   1.406       .  A
C1120      C1121   1.413       .  A
C1120     Br1131   1.931       .  S
C1121      C1122   1.429       .  A
C1121     Br1127   1.936       .  S
C1122      C1123   1.431       .  A
C1123      C1124   1.414       .  A
C1123     Br1132   1.937       .  S
C1124     Br1128   1.934       .  S
C1133      C1134   1.408       .  A
C1133      C1138   1.407       .  A
C1134      C1135   1.409       .  A
C1134     Br1146   1.929       .  S
C1135      C1136   1.412       .  A
C1135     Br1150   1.929       .  S
C1136      C1139   1.487       .  S
C1136      C1137   1.411       .  A
C1137      C1138   1.405       .  A
C1137     Br1145   1.931       .  S
C1138     Br1149   1.929       .  S
C1139      C1140   1.410       .  A
C1139      C1144   1.409       .  A
C1140      C1141   1.409       .  A
C1140     Br1151   1.929       .  S
C1141      C1142   1.410       .  A
C1141     Br1147   1.930       .  S
C1142      C1143   1.414       .  A
C1143      C1144   1.406       .  A
C1143     Br1152   1.935       .  S
C1144     Br1148   1.927       .  S
C1153      C1154   1.409       .  A
C1153      C1158   1.409       .  A
C1154      C1155   1.408       .  A
C1154     Br1166   1.928       .  S
C1155      C1156   1.410       .  A
C1155     Br1170   1.929       .  S
C1156      C1159   1.486       .  S
C1156      C1157   1.410       .  A
C1157      C1158   1.409       .  A
C1157     Br1165   1.928       .  S
C1158     Br1169   1.928   1_565  S
C1159      C1160   1.410       .  A
C1159      C1164   1.406       .  A
C1160      C1161   1.413       .  A
C1160     Br1171   1.927   1_565  S
C1161      C1162   1.412       .  A
C1161     Br1167   1.928       .  S
C1162      C1163   1.413       .  A
C1163      C1164   1.403       .  A
C1163     Br1172   1.934       .  S
C1164     Br1168   1.925       .  S
C1173      C1174   1.415       .  A
C1173      C1178   1.412       .  A
C1174      C1175   1.409       .  A
C1174     Br1186   1.930       .  S
C1175      C1176   1.406       .  A
C1175     Br1190   1.928       .  S
C1176      C1179   1.479       .  S
C1176      C1177   1.408       .  A
C1177      C1178   1.402       .  A
C1177     Br1185   1.934       .  S
C1178     Br1189   1.934       .  S
C1179      C1180   1.406       .  A
C1179      C1184   1.403       .  A
C1180      C1181   1.406       .  A
C1180     Br1191   1.932       .  S
C1181      C1182   1.417       .  A
C1181     Br1187   1.934       .  S
C1182      C1183   1.421       .  A
C1183      C1184   1.407       .  A
C1183     Br1192   1.931       .  S
C1184     Br1188   1.931       .  S
C1193      C1194   1.408       .  A
C1193      C1198   1.409       .  A
C1194      C1195   1.404       .  A
C1194     Br1206   1.928       .  S
C1195      C1196   1.409       .  A
C1195     Br1210   1.930       .  S
C1196      C1199   1.488       .  S
C1196      C1197   1.413       .  A
C1197      C1198   1.410       .  A
C1197     Br1205   1.930       .  S
C1198     Br1209   1.927       .  S
C1199      C1200   1.410       .  A
C1199      C1204   1.410       .  A
C1200      C1201   1.405       .  A
C1200     Br1211   1.932       .  S
C1201      C1202   1.413       .  A
C1201     Br1207   1.933       .  S
C1202      C1203   1.412       .  A
C1203      C1204   1.411       .  A
C1203     Br1212   1.930       .  S
C1204     Br1208   1.929       .  S
C1213      C1214   1.407       .  A
C1213      C1218   1.409       .  A
C1214      C1215   1.405       .  A
C1214     Br1226   1.928       .  S
C1215      C1216   1.408       .  A
C1215     Br1230   1.929       .  S
C1216      C1219   1.479       .  S
C1216      C1217   1.409       .  A
C1217      C1218   1.406       .  A
C1217     Br1225   1.931       .  S
C1218     Br1229   1.928       .  S
C1219      C1220   1.409       .  A
C1219      C1224   1.407       .  A
C1220      C1221   1.408       .  A
C1220     Br1231   1.929       .  S
C1221      C1222   1.411       .  A
C1221     Br1227   1.929       .  S
C1222      C1223   1.412       .  A
C1223      C1224   1.402       .  A
C1223     Br1232   1.934       .  S
C1224     Br1228   1.931       .  S
C1233      C1234   1.409       .  A
C1233      C1238   1.409       .  A
C1234      C1235   1.409       .  A
C1234     Br1246   1.928       .  S
C1235      C1236   1.410       .  A
C1235     Br1250   1.929       .  S
C1236      C1239   1.484       .  S
C1236      C1237   1.409       .  A
C1237      C1238   1.405       .  A
C1237     Br1245   1.931       .  S
C1238     Br1249   1.931       .  S
C1239      C1240   1.408       .  A
C1239      C1244   1.411       .  A
C1240      C1241   1.402       .  A
C1240     Br1251   1.931       .  S
C1241      C1242   1.408       .  A
C1241     Br1247   1.931       .  S
C1242      C1243   1.411       .  A
C1243      C1244   1.411       .  A
C1243     Br1252   1.929       .  S
C1244     Br1248   1.928       .  S
C1253      C1254   1.407       .  A
C1253      C1258   1.408       .  A
C1254      C1255   1.407       .  A
C1254     Br1266   1.929       .  S
C1255      C1256   1.411   1_545  A
C1255     Br1270   1.929   1_545  S
C1256      C1259   1.486       .  S
C1256      C1257   1.411   1_565  A
C1257      C1258   1.408       .  A
C1257     Br1265   1.928   1_545  S
C1258     Br1269   1.928       .  S
C1259      C1260   1.409       .  A
C1259      C1264   1.410       .  A
C1260      C1261   1.409       .  A
C1260     Br1271   1.928       .  S
C1261      C1262   1.412       .  A
C1261     Br1267   1.930       .  S
C1262      C1263   1.412       .  A
C1263      C1264   1.406       .  A
C1263     Br1272   1.933       .  S
C1264     Br1268   1.933   1_565  S
C1273      C1274   1.424       .  A
C1273      C1278   1.426       .  A
C1274      C1275   1.406   1_455  A
C1274     Br1286   1.938   1_455  S
C1275      C1276   1.407       .  A
C1275     Br1290   1.934       .  S
C1276      C1279   1.484       .  S
C1276      C1277   1.404       .  A
C1277      C1278   1.407   1_655  A
C1277     Br1285   1.932       .  S
C1278     Br1289   1.937       .  S
C1279      C1280   1.401       .  A
C1279      C1284   1.404       .  A
C1280      C1281   1.406       .  A
C1280     Br1291   1.936   1_655  S
C1281      C1282   1.430       .  A
C1281     Br1287   1.938   1_556  S
C1282      C1283   1.434       .  A
C1283      C1284   1.411       .  A
C1283     Br1292   1.940       .  S
C1284     Br1288   1.937       .  S
C1293      C1294   1.407       .  A
C1293      C1298   1.406       .  A
C1294      C1295   1.405       .  A
C1294     Br1306   1.930       .  S
C1295      C1296   1.410       .  A
C1295     Br1310   1.928       .  S
C1296      C1299   1.480       .  S
C1296      C1297   1.409       .  A
C1297      C1298   1.404       .  A
C1297     Br1305   1.930       .  S
C1298     Br1309   1.930       .  S
C1299      C1300   1.409       .  A
C1299      C1304   1.404       .  A
C1300      C1301   1.411       .  A
C1300     Br1311   1.928       .  S
C1301      C1302   1.409       .  A
C1301     Br1307   1.926       .  S
C1302      C1303   1.412       .  A
C1303      C1304   1.401       .  A
C1303     Br1312   1.931       .  S
C1304     Br1308   1.927       .  S
C1313      C1314   1.422       .  A
C1313      C1318   1.424       .  A
C1314      C1315   1.414       .  A
C1314     Br1326   1.929       .  S
C1315      C1316   1.410       .  A
C1315     Br1330   1.929       .  S
C1316      C1319   1.492       .  S
C1316      C1317   1.403       .  A
C1317      C1318   1.406       .  A
C1317     Br1325   1.933       .  S
C1318     Br1329   1.935       .  S
C1319      C1320   1.411       .  A
C1319      C1324   1.407       .  A
C1320      C1321   1.411       .  A
C1320     Br1331   1.935       .  S
C1321      C1322   1.420       .  A
C1321     Br1327   1.933       .  S
C1322      C1323   1.418       .  A
C1323      C1324   1.409       .  A
C1323     Br1332   1.932       .  S
C1324     Br1328   1.931       .  S
C1333      C1334   1.410       .  A
C1333      C1338   1.414       .  A
C1334      C1335   1.404   1_556  A
C1334     Br1346   1.930       .  S
C1335      C1336   1.407       .  A
C1335     Br1350   1.931       .  S
C1336      C1339   1.482       .  S
C1336      C1337   1.408       .  A
C1337      C1338   1.411   1_554  A
C1337     Br1345   1.928       .  S
C1338     Br1349   1.929       .  S
C1339      C1340   1.410       .  A
C1339      C1344   1.408       .  A
C1340      C1341   1.404       .  A
C1340     Br1351   1.931       .  S
C1341      C1342   1.409       .  A
C1341     Br1347   1.932       .  S
C1342      C1343   1.411       .  A
C1343      C1344   1.409       .  A
C1343     Br1352   1.930       .  S
C1344     Br1348   1.927       .  S
C1353      C1354   1.405       .  A
C1353      C1358   1.406       .  A
C1354      C1355   1.403       .  A
C1354     Br1366   1.930       .  S
C1355      C1356   1.410       .  A
C1355     Br1370   1.931       .  S
C1356      C1359   1.476       .  S
C1356      C1357   1.409       .  A
C1357      C1358   1.404       .  A
C1357     Br1365   1.930       .  S
C1358     Br1369   1.928       .  S
C1359      C1360   1.410       .  A
C1359      C1364   1.407       .  A
C1360      C1361   1.404       .  A
C1360     Br1371   1.929       .  S
C1361      C1362   1.405       .  A
C1361     Br1367   1.928       .  S
C1362      C1363   1.408       .  A
C1363      C1364   1.401       .  A
C1363     Br1372   1.933       .  S
C1364     Br1368   1.923       .  S
C1373      C1374   1.412       .  A
C1373      C1378   1.412       .  A
C1374      C1375   1.406       .  A
C1374     Br1386   1.930       .  S
C1375      C1376   1.406       .  A
C1375     Br1390   1.929       .  S
C1376      C1379   1.477       .  S
C1376      C1377   1.407       .  A
C1377      C1378   1.405       .  A
C1377     Br1385   1.931       .  S
C1378     Br1389   1.931       .  S
C1379      C1380   1.408       .  A
C1379      C1384   1.405       .  A
C1380      C1381   1.403       .  A
C1380     Br1391   1.932       .  S
C1381      C1382   1.412       .  A
C1381     Br1387   1.933       .  S
C1382      C1383   1.417       .  A
C1383      C1384   1.407       .  A
C1383     Br1392   1.931       .  S
C1384     Br1388   1.929       .  S
C1393      C1394   1.417       .  A
C1393      C1398   1.418       .  A
C1394      C1395   1.406       .  A
C1394     Br1406   1.934       .  S
C1395      C1396   1.408       .  A
C1395     Br1410   1.934       .  S
C1396      C1399   1.483       .  S
C1396      C1397   1.406       .  A
C1397      C1398   1.409       .  A
C1397     Br1405   1.930       .  S
C1398     Br1409   1.932       .  S
C1399      C1400   1.410       .  A
C1399      C1404   1.408       .  A
C1400      C1401   1.409       .  A
C1400     Br1411   1.928       .  S
C1401      C1402   1.409       .  A
C1401     Br1407   1.928       .  S
C1402      C1403   1.408       .  A
C1403      C1404   1.403       .  A
C1403     Br1412   1.930       .  S
C1404     Br1408   1.929       .  S
C1413      C1414   1.414       .  A
C1413      C1418   1.415       .  A
C1414      C1415   1.408       .  A
C1414     Br1426   1.933       .  S
C1415      C1416   1.410       .  A
C1415     Br1430   1.932       .  S
C1416      C1419   1.491       .  S
C1416      C1417   1.410       .  A
C1417      C1418   1.411       .  A
C1417     Br1425   1.930       .  S
C1418     Br1429   1.932       .  S
C1419      C1420   1.411       .  A
C1419      C1424   1.408       .  A
C1420      C1421   1.413       .  A
C1420     Br1431   1.929       .  S
C1421      C1422   1.414       .  A
C1421     Br1427   1.929       .  S
C1422      C1423   1.413       .  A
C1423      C1424   1.406       .  A
C1423     Br1432   1.932       .  S
C1424     Br1428   1.931       .  S
C1433      C1434   1.419       .  A
C1433      C1438   1.416       .  A
C1434      C1435   1.409       .  A
C1434     Br1446   1.933       .  S
C1435      C1436   1.406       .  A
C1435     Br1450   1.930       .  S
C1436      C1439   1.485       .  S
C1436      C1437   1.409       .  A
C1437      C1438   1.407       .  A
C1437     Br1445   1.933   1_565  S
C1438     Br1449   1.934       .  S
C1439      C1440   1.410       .  A
C1439      C1444   1.408   1_565  A
C1440      C1441   1.410   1_565  A
C1440     Br1451   1.928       .  S
C1441      C1442   1.409       .  A
C1441     Br1447   1.927       .  S
C1442      C1443   1.408       .  A
C1443      C1444   1.405       .  A
C1443     Br1452   1.929       .  S
C1444     Br1448   1.929   1_545  S
C1453      C1454   1.423       .  A
C1453      C1458   1.424       .  A
C1454      C1455   1.402       .  A
C1454     Br1466   1.938       .  S
C1455      C1456   1.404       .  A
C1455     Br1470   1.934       .  S
C1456      C1459   1.473       .  S
C1456      C1457   1.403       .  A
C1457      C1458   1.404       .  A
C1457     Br1465   1.933       .  S
C1458     Br1469   1.937       .  S
C1459      C1460   1.402       .  A
C1459      C1464   1.404       .  A
C1460      C1461   1.403       .  A
C1460     Br1471   1.932       .  S
C1461      C1462   1.424       .  A
C1461     Br1467   1.936       .  S
C1462      C1463   1.424       .  A
C1463      C1464   1.403       .  A
C1463     Br1472   1.939       .  S
C1464     Br1468   1.935       .  S
C1473      C1474   1.409       .  A
C1473      C1478   1.413       .  A
C1474      C1475   1.402       .  A
C1474     Br1486   1.932       .  S
C1475      C1476   1.408       .  A
C1475     Br1490   1.927       .  S
C1476      C1479   1.477       .  S
C1476      C1477   1.406       .  A
C1477      C1478   1.405       .  A
C1477     Br1485   1.929       .  S
C1478     Br1489   1.932       .  S
C1479      C1480   1.403       .  A
C1479      C1484   1.407       .  A
C1480      C1481   1.405       .  A
C1480     Br1491   1.932       .  S
C1481      C1482   1.417       .  A
C1481     Br1487   1.930       .  S
C1482      C1483   1.413       .  A
C1483      C1484   1.406       .  A
C1483     Br1492   1.931       .  S
C1484     Br1488   1.931       .  S
C1493      C1494   1.416       .  A
C1493      C1498   1.414       .  A
C1494      C1495   1.408       .  A
C1494     Br1506   1.930       .  S
C1495      C1496   1.405       .  A
C1495     Br1510   1.929       .  S
C1496      C1499   1.482       .  S
C1496      C1497   1.408       .  A
C1497      C1498   1.407       .  A
C1497     Br1505   1.932       .  S
C1498     Br1509   1.933       .  S
C1499      C1500   1.409       .  A
C1499      C1504   1.408       .  A
C1500      C1501   1.409       .  A
C1500     Br1511   1.927       .  S
C1501      C1502   1.411       .  A
C1501     Br1507   1.928       .  S
C1502      C1503   1.408       .  A
C1503      C1504   1.403       .  A
C1503     Br1512   1.930       .  S
C1504     Br1508   1.931       .  S
C1513      C1514   1.412       .  A
C1513      C1518   1.414       .  A
C1514      C1515   1.405       .  A
C1514     Br1526   1.932       .  S
C1515      C1516   1.409       .  A
C1515     Br1530   1.930       .  S
C1516      C1519   1.479       .  S
C1516      C1517   1.405       .  A
C1517      C1518   1.405       .  A
C1517     Br1525   1.930       .  S
C1518     Br1529   1.931       .  S
C1519      C1520   1.405       .  A
C1519      C1524   1.408       .  A
C1520      C1521   1.405       .  A
C1520     Br1531   1.931       .  S
C1521      C1522   1.416       .  A
C1521     Br1527   1.931       .  S
C1522      C1523   1.412       .  A
C1523      C1524   1.406       .  A
C1523     Br1532   1.932       .  S
C1524     Br1528   1.929       .  S
C1533      C1534   1.413       .  A
C1533      C1538   1.415       .  A
C1534      C1535   1.410       .  A
C1534     Br1546   1.931       .  S
C1535      C1536   1.410       .  A
C1535     Br1550   1.929       .  S
C1536      C1539   1.489       .  S
C1536      C1537   1.408       .  A
C1537      C1538   1.408       .  A
C1537     Br1545   1.929       .  S
C1538     Br1549   1.933       .  S
C1539      C1540   1.408       .  A
C1539      C1544   1.407       .  A
C1540      C1541   1.413       .  A
C1540     Br1551   1.929       .  S
C1541      C1542   1.418       .  A
C1541     Br1547   1.929       .  S
C1542      C1543   1.417       .  A
C1543      C1544   1.407       .  A
C1543     Br1552   1.933       .  S
C1544     Br1548   1.933       .  S
C1553      C1554   1.408       .  A
C1553      C1558   1.413       .  A
C1554      C1555   1.405       .  A
C1554     Br1566   1.930       .  S
C1555      C1556   1.411       .  A
C1555     Br1570   1.931       .  S
C1556      C1559   1.480       .  S
C1556      C1557   1.406       .  A
C1557      C1558   1.407       .  A
C1557     Br1565   1.928       .  S
C1558     Br1569   1.931       .  S
C1559      C1560   1.406       .  A
C1559      C1564   1.408       .  A
C1560      C1561   1.406       .  A
C1560     Br1571   1.928       .  S
C1561      C1562   1.413       .  A
C1561     Br1567   1.929       .  S
C1562      C1563   1.408       .  A
C1563      C1564   1.405       .  A
C1563     Br1572   1.928       .  S
C1564     Br1568   1.929       .  S
C1573      C1574   1.412       .  A
C1573      C1578   1.412       .  A
C1574      C1575   1.409       .  A
C1574     Br1586   1.930       .  S
C1575      C1576   1.409       .  A
C1575     Br1590   1.928       .  S
C1576      C1579   1.485       .  S
C1576      C1577   1.409       .  A
C1577      C1578   1.404       .  A
C1577     Br1585   1.931       .  S
C1578     Br1589   1.933       .  S
C1579      C1580   1.408       .  A
C1579      C1584   1.409       .  A
C1580      C1581   1.410       .  A
C1580     Br1591   1.929       .  S
C1581      C1582   1.415       .  A
C1581     Br1587   1.930       .  S
C1582      C1583   1.413       .  A
C1583      C1584   1.405       .  A
C1583     Br1592   1.933       .  S
C1584     Br1588   1.932       .  S
