geometry optimzed in LAMMPS
_audit_creation_date              2020-12-01 
_audit_creation_method            'lammps2cif' 
_symmetry_space_group_name_H-M    'P1' 
_symmetry_Int_Tables_number       1 
_symmetry_cell_setting            triclinic 
loop_ 
_symmetry_equiv_pos_as_xyz 
  x,y,z 
_cell_length_a                    50.50531837 
_cell_length_b                    50.01239736455192 
_cell_length_c                    34.8085691836085 
_cell_angle_alpha                 89.69061150818202 
_cell_angle_beta                  89.83057741546058 
_cell_angle_gamma                 90.54367908255865 
loop_ 
_atom_site_label 
_atom_site_type_symbol 
_atom_site_fract_x 
_atom_site_fract_y 
_atom_site_fract_z 
_atom_site_charge 
O1          O  0.48420668  0.77484052  0.94892006    -0.72200
O2          O  0.53710507  0.79459646  0.02257204    -0.72200
O3          O  0.48580489  0.77968252  0.02576814    -0.72300
O4          O  0.53597482  0.78931673  0.94457714    -0.72300
O5          O  0.52472203  0.83202940  0.93910101    -0.72200
O6          O  0.47317120  0.82199070  0.02014368    -0.72200
O7          O  0.52478323  0.83709235  0.01771199    -0.72200
O8          O  0.47284211  0.81758576  0.94256616    -0.72300
Ni9        Ni  0.51131762  0.78317856  0.98556829     1.25400
Ni10       Ni  0.49860839  0.82876623  0.97962028     1.25400
C11         C  0.46938589  0.79289139  0.93430083     0.90000
C12         C  0.53878506  0.81895243  0.03370561     0.89900
C13         C  0.47081304  0.79885226  0.03604607     0.90000
C14         C  0.53835987  0.81199966  0.92765384     0.90100
N15         N  0.64298624  0.81854819  0.68096757    -0.01200
C16         C  0.63936767  0.83492260  0.65034943     0.01400
C17         C  0.65657734  0.82858821  0.62089946    -0.21500
C18         C  0.67133020  0.80747105  0.63365840    -0.21700
C19         C  0.66250819  0.80165175  0.67038816     0.01300
H20         H  0.65825860  0.83837721  0.59317813     0.15000
H21         H  0.68629514  0.79700235  0.61754832     0.15100
N22         N  0.28888342  0.72128517  0.78896276    -0.01200
C23         C  0.30795052  0.72271414  0.81627182     0.01400
C24         C  0.30181618  0.70642134  0.84716174    -0.21500
C25         C  0.27810944  0.69437107  0.83888228    -0.21700
C26         C  0.27047222  0.70374832  0.80314497     0.01300
H27         H  0.31353118  0.70349026  0.87286635     0.15000
H28         H  0.26785169  0.67970934  0.85665615     0.15100
N29         N  0.63477427  0.83931721  0.28350983    -0.01200
C30         C  0.63658575  0.85920384  0.30979258     0.01400
C31         C  0.65269632  0.85154688  0.33992752    -0.21500
C32         C  0.66105066  0.82616302  0.33214773    -0.21700
C33         C  0.64983963  0.81916238  0.29749389     0.01300
H34         H  0.65723686  0.86294368  0.36547873     0.15000
H35         H  0.67398792  0.81411843  0.34974908     0.15100
N36         N  0.29797211  0.72146916  0.19014657    -0.01200
C37         C  0.31339074  0.72679110  0.15897466     0.01400
C38         C  0.30805392  0.70891842  0.12982748    -0.21500
C39         C  0.28867984  0.69194168  0.14329855    -0.21700
C40         C  0.28276911  0.70002768  0.18022070     0.01300
H41         H  0.31753614  0.70813145  0.10190718     0.15000
H42         H  0.27948934  0.67569751  0.12759447     0.15100
O43         O  0.58003808  0.02214556  0.45603353    -0.72200
O44         O  0.57386544  0.06920087  0.54188531    -0.72200
O45         O  0.58555217  0.01684273  0.53290343    -0.72300
O46         O  0.56836709  0.07422902  0.46527445    -0.72300
O47         O  0.52557512  0.06328800  0.46946576    -0.72200
O48         O  0.54284809  0.00632381  0.53892420    -0.72200
O49         O  0.53099909  0.05881225  0.54708079    -0.72200
O50         O  0.53745446  0.01053520  0.46196315    -0.72300
Ni51       Ni  0.57843257  0.04598475  0.49886696     1.25400
Ni52       Ni  0.53263377  0.03442729  0.50454689     1.25400
C53         C  0.55995911  0.00831631  0.44521418     0.90000
C54         C  0.55145317  0.07182783  0.55867889     0.89900
C55         C  0.56716956  0.00187655  0.54690562     0.90000
C56         C  0.54424066  0.07816018  0.45592096     0.90100
O57         O  0.24236972  0.88296030  0.45127661    -0.72200
O58         O  0.25550879  0.82870845  0.52674380    -0.72200
O59         O  0.24376358  0.88136205  0.52882985    -0.72300
O60         O  0.25454784  0.83032490  0.44800190    -0.72300
O61         O  0.29759223  0.84029640  0.44748837    -0.72200
O62         O  0.28663873  0.89181511  0.52718889    -0.72200
O63         O  0.29840246  0.83918675  0.52641369    -0.72200
O64         O  0.28525980  0.89327527  0.44951341    -0.72300
Ni65       Ni  0.24758910  0.85531490  0.48869596     1.25400
Ni66       Ni  0.29353337  0.86635361  0.48750740     1.25400
C67         C  0.26140079  0.89769069  0.43865571     0.90000
C68         C  0.27881766  0.82576746  0.54048082     0.89900
C69         C  0.26340070  0.89539873  0.54097086     0.90000
C70         C  0.27778953  0.82734715  0.43371519     0.90100
O71         O  0.30779756  0.11271277  0.04820916    -0.72200
O72         O  0.36058088  0.12781295  0.97258465    -0.72200
O73         O  0.30985349  0.10988614  0.97048846    -0.72300
O74         O  0.35846355  0.13009128  0.04976572    -0.72300
O75         O  0.37274828  0.08823966  0.05348161    -0.72200
O76         O  0.32382548  0.06785623  0.97441021    -0.72200
O77         O  0.37480605  0.08581195  0.97559600    -0.72200
O78         O  0.32176108  0.07075418  0.05306433    -0.72300
Ni79       Ni  0.33360527  0.12151719  0.01007444     1.25400
Ni80       Ni  0.34867890  0.07657448  0.01424984     1.25400
C81         C  0.30643451  0.08961422  0.06404588     0.90000
C82         C  0.37679648  0.10971610  0.96218354     0.89900
C83         C  0.30914393  0.08562469  0.95881625     0.90000
C84         C  0.37392701  0.11264217  0.06446388     0.90100
N85         N  0.21420577  0.07503979  0.70955106    -0.01200
C86         C  0.21919878  0.06358924  0.67505445     0.01400
C87         C  0.20581094  0.07699141  0.64629275    -0.21500
C88         C  0.19205214  0.09724174  0.66368246    -0.21700
C89         C  0.19768644  0.09568082  0.70242987     0.01300
H90         H  0.20506778  0.07175049  0.61617631     0.15000
H91         H  0.17887725  0.11117990  0.64975490     0.15100
N92         N  0.55402037  0.17875752  0.80194437    -0.01200
C93         C  0.53382454  0.18229829  0.82715452     0.01400
C94         C  0.54062115  0.20137691  0.85401940    -0.21500
C95         C  0.56578562  0.21001844  0.84496083    -0.21700
C96         C  0.57349752  0.19592791  0.81285256     0.01300
H97         H  0.52892278  0.20751675  0.87850698     0.15000
H98         H  0.57767821  0.22413823  0.86108236     0.15100
N99         N  0.53860898  0.19949859  0.23002416    -0.01200
C100        C  0.52489858  0.19682574  0.19680571     0.01400
C101        C  0.53298103  0.21611506  0.17058463    -0.21500
C102        C  0.55239774  0.23102714  0.18818122    -0.21700
C103        C  0.55560928  0.22029974  0.22453438     0.01300
H104        H  0.52570070  0.21887337  0.14162878     0.15000
H105        H  0.56376784  0.24718545  0.17526640     0.15100
N106        N  0.19224271  0.08380987  0.30008973    -0.01200
C107        C  0.19502921  0.06885805  0.33245756     0.01400
C108        C  0.17699014  0.07679263  0.35997100    -0.21500
C109        C  0.16255181  0.09716062  0.34393637    -0.21700
C110        C  0.17226638  0.10113806  0.30710489     0.01300
H111        H  0.17402052  0.06806324  0.38819888     0.15000
H112        H  0.14649819  0.10772399  0.35756183     0.15100
O113        O  0.90332780  0.60546795  0.53243078    -0.72200
O114        O  0.85574423  0.61920575  0.44969045    -0.72200
O115        O  0.85096390  0.61521054  0.52736119    -0.72300
O116        O  0.90804537  0.60910809  0.45541662    -0.72300
O117        O  0.89988526  0.56552665  0.44947674    -0.72200
O118        O  0.84352816  0.57132521  0.52300746    -0.72200
O119        O  0.84721252  0.57570084  0.44446178    -0.72200
O120        O  0.89611196  0.56170916  0.52705878    -0.72300
Ni121      Ni  0.87971070  0.61376126  0.49136058     1.25400
Ni122      Ni  0.87125243  0.56699862  0.48577002     1.25400
C123        C  0.90799807  0.58145667  0.54321067     0.90000
C124        C  0.84390825  0.59986061  0.43275250     0.89900
C125        C  0.83851543  0.59403006  0.53816179     0.90000
C126        C  0.91367294  0.58634796  0.44088666     0.90100
O127        O  0.87276168  0.25924885  0.47551364    -0.72200
O128        O  0.92640785  0.25474129  0.55318476    -0.72200
O129        O  0.87305097  0.25198184  0.55246971    -0.72300
O130        O  0.92634572  0.26144286  0.47543519    -0.72300
O131        O  0.92504581  0.30560100  0.48300704    -0.72200
O132        O  0.87144501  0.29601347  0.56076789    -0.72200
O133        O  0.92479557  0.29882008  0.56072630    -0.72200
O134        O  0.87190850  0.30346442  0.48370966    -0.72300
Ni135      Ni  0.89977085  0.25526787  0.51383025     1.25400
Ni136      Ni  0.89828824  0.30252353  0.52234231     1.25400
C137        C  0.86367802  0.28235211  0.46687782     0.90000
C138        C  0.93393941  0.27606012  0.57056808     0.89900
C139        C  0.86350815  0.27230458  0.56964195     0.90000
C140        C  0.93408939  0.28499371  0.46573636     0.90100
O141        O  0.06582191  0.42867318  0.02942523    -0.72200
O142        O  0.07010298  0.47848129  0.94554730    -0.72200
O143        O  0.06637498  0.42453666  0.95230694    -0.72300
O144        O  0.06957771  0.48261448  0.02360942    -0.72300
O145        O  0.11348255  0.47994229  0.02460648    -0.72200
O146        O  0.11030835  0.42178499  0.95296761    -0.72200
O147        O  0.11402291  0.47584227  0.94624215    -0.72200
O148        O  0.10972350  0.42576405  0.03034692    -0.72300
Ni149      Ni  0.06645358  0.45379792  0.98766555     1.25400
Ni150      Ni  0.11346730  0.45088089  0.98855197     1.25400
C151        C  0.08694915  0.41840918  0.04319005     0.90000
C152        C  0.09271761  0.48502284  0.93137907     0.89900
C153        C  0.08772181  0.41306470  0.94157192     0.90000
C154        C  0.09199021  0.49047857  0.03678581     0.90100
N155        N  0.09505618  0.59751927  0.69031598    -0.01200
C156        C  0.11298646  0.61651689  0.67969329     0.01400
C157        C  0.10739439  0.62644106  0.64363103    -0.21500
C158        C  0.08526384  0.61298407  0.63131092    -0.21700
C159        C  0.07805175  0.59534965  0.66037529     0.01300
H160        H  0.11801193  0.64214223  0.62830097     0.15000
H161        H  0.07485788  0.61642440  0.60457701     0.15100
N162        N  0.06739289  0.23643367  0.81033705    -0.01200
C163        C  0.04228078  0.23376907  0.79719267     0.01400
C164        C  0.03309245  0.20798578  0.80248217    -0.21500
C165        C  0.05335031  0.19402789  0.81887321    -0.21700
C166        C  0.07443632  0.21173207  0.82306158     0.01300
H167        H  0.01491320  0.19948507  0.79125096     0.15000
H168        H  0.05370298  0.17251540  0.82248540     0.15100
N169        N  0.05384872  0.25768889  0.21012966    -0.01200
C170        C  0.02932300  0.25711233  0.22624652     0.01400
C171        C  0.01798865  0.23202170  0.22289732    -0.21500
C172        C  0.03629937  0.21629396  0.20522847    -0.21700
C173        C  0.05835036  0.23225365  0.19825508     0.01300
H174        H  0.99981923  0.22501610  0.23645323     0.15000
H175        H  0.03495559  0.19473263  0.20255692     0.15100
N176        N  0.09745779  0.60314898  0.27484652    -0.01200
C177        C  0.11869202  0.61611344  0.28990827     0.01400
C178        C  0.11323737  0.62468308  0.32672395    -0.21500
C179        C  0.08779722  0.61666179  0.33477485    -0.21700
C180        C  0.07865031  0.60343867  0.30264510     0.01300
H181        H  0.12619134  0.63613523  0.34533505     0.15000
H182        H  0.07694842  0.62026182  0.36113200     0.15100
O183        O  0.86439849  0.47055126  0.03526331    -0.72200
O184        O  0.88982410  0.41347830  0.97152792    -0.72200
O185        O  0.87149364  0.46429703  0.95879033    -0.72300
O186        O  0.88241157  0.42057188  0.04878747    -0.72300
O187        O  0.84109088  0.40495871  0.04279723    -0.72200
O188        O  0.83068138  0.44726199  0.95320634    -0.72200
O189        O  0.84843010  0.39767575  0.96725869    -0.72200
O190        O  0.82323729  0.45465955  0.02871325    -0.72300
Ni191      Ni  0.87864706  0.44273660  0.00365707     1.25400
Ni192      Ni  0.83450261  0.42553958  0.99781479     1.25400
C193        C  0.83947625  0.47211022  0.04185611     0.90000
C194        C  0.87305575  0.39611089  0.95926700     0.89900
C195        C  0.84894531  0.46335248  0.94191231     0.90000
C196        C  0.86310518  0.40593823  0.06085381     0.90100
N197        N  0.78501194  0.23605162  0.82519805    -0.01200
C198        C  0.76445599  0.22164695  0.83978423     0.01400
C199        C  0.76884401  0.21618784  0.87822231    -0.21500
C200        C  0.79290690  0.22758581  0.88744438    -0.21700
C201        C  0.80232336  0.23985803  0.85441347     0.01300
H202        H  0.75503749  0.20685915  0.89814567     0.15000
H203        H  0.80130267  0.22901924  0.91592332     0.15100
N204        N  0.73763739  0.61284421  0.78430961    -0.01200
C205        C  0.72061106  0.63191924  0.79621731     0.01400
C206        C  0.71115929  0.62592628  0.83259524    -0.21500
C207        C  0.72295551  0.60252389  0.84365516    -0.21700
C208        C  0.73929029  0.59507377  0.81371412     0.01300
H209        H  0.69780131  0.63778407  0.84974641     0.15000
H210        H  0.72104085  0.59284486  0.87141486     0.15100
N211        N  0.73864256  0.63483705  0.19237965    -0.01200
C212        C  0.71691751  0.64967338  0.18476576     0.01400
C213        C  0.70751758  0.64433256  0.14829922    -0.21500
C214        C  0.72400989  0.62560565  0.13280147    -0.21700
C215        C  0.74280951  0.62021302  0.16036060     0.01300
H216        H  0.69099723  0.65377737  0.13403244     0.15000
H217        H  0.72250083  0.61681465  0.10445653     0.15100
N218        N  0.74021954  0.31827989  0.25323643    -0.01200
C219        C  0.71739544  0.30851113  0.23850367     0.01400
C220        C  0.71279305  0.31960265  0.20273527    -0.21500
C221        C  0.73367819  0.33665363  0.19515645    -0.21700
C222        C  0.75041333  0.33532925  0.22650544     0.01300
H223        H  0.69634122  0.31526573  0.18384547     0.15000
H224        H  0.73700191  0.34771369  0.16874312     0.15100
C225        C  0.83188426  0.52793942  0.89318773     0.14900
C226        C  0.81614083  0.51864100  0.86258055     0.01900
C227        C  0.81583442  0.49116065  0.85422839     0.16900
C228        C  0.82852918  0.47304719  0.87850986     0.26300
C229        C  0.84254722  0.48218146  0.91073486    -0.40100
C230        C  0.84526111  0.50981372  0.91681949     0.33300
C231        C  0.79700529  0.53674320  0.84352968     0.01900
F232        F  0.80173926  0.48171588  0.82395363    -0.12400
F233        F  0.85835806  0.51910176  0.94812665    -0.12900
C234        C  0.80515386  0.56143180  0.82766962     0.16900
C235        C  0.78634313  0.57990815  0.81508292     0.26300
C236        C  0.75915847  0.57379695  0.81776196    -0.40000
C237        C  0.75111360  0.54860594  0.83154320     0.33200
C238        C  0.76978807  0.53032677  0.84457108     0.14900
F239        F  0.83124602  0.56811730  0.82591607    -0.12400
F240        F  0.72496359  0.54229125  0.83438674    -0.12900
F241        F  0.79463191  0.60454853  0.80343479    -0.15200
F242        F  0.76107237  0.50712534  0.86087889    -0.13700
F243        F  0.83226885  0.55426227  0.90255680    -0.13700
F244        F  0.82580881  0.44642854  0.87191187    -0.15100
C245        C  0.87792321  0.32485564  0.93319704     0.14900
C246        C  0.87193497  0.32631219  0.89366511     0.01900
C247        C  0.87466557  0.35120692  0.87475319     0.16900
C248        C  0.87859139  0.37461302  0.89599299     0.26300
C249        C  0.88121536  0.37324904  0.93604217    -0.40100
C250        C  0.88278631  0.34819873  0.95406450     0.33300
C251        C  0.85731086  0.30380009  0.87499080     0.01900
F252        F  0.87073771  0.35317054  0.83627016    -0.12400
F253        F  0.88556719  0.34657629  0.99280673    -0.12900
C254        C  0.83243312  0.30871797  0.85813643     0.16900
C255        C  0.81569931  0.28758753  0.84783580     0.26300
C256        C  0.82297810  0.26106023  0.85523049    -0.40000
C257        C  0.84827136  0.25589919  0.87008856     0.33200
C258        C  0.86555331  0.27708316  0.87912570     0.14900
F259        F  0.82300533  0.33398118  0.85514400    -0.12400
F260        F  0.85571920  0.23038417  0.87750429    -0.12900
F261        F  0.79111187  0.29324908  0.83460276    -0.15200
F262        F  0.88979884  0.27149249  0.89368758    -0.13700
F263        F  0.87573862  0.30139549  0.95278362    -0.13700
F264        F  0.87671881  0.39872389  0.87812319    -0.15100
C265        C  0.79389313  0.52678964  0.07419237     0.14900
C266        C  0.80711151  0.53661884  0.10659151     0.01900
C267        C  0.83141398  0.52565864  0.11753956     0.16900
C268        C  0.84234442  0.50475609  0.09625039     0.26300
C269        C  0.82886029  0.49458683  0.06406001    -0.40100
C270        C  0.80460339  0.50588669  0.05314588     0.33300
C271        C  0.79519279  0.55866620  0.12805578     0.01900
F272        F  0.84434213  0.53508066  0.14888054    -0.12400
F273        F  0.79153360  0.49709521  0.02151436    -0.12900
C274        C  0.77497618  0.55324077  0.15483473     0.16900
C275        C  0.75920696  0.57397887  0.16843921     0.26300
C276        C  0.76342388  0.60014683  0.15498269    -0.40000
C277        C  0.78453503  0.60575653  0.12983731     0.33200
C278        C  0.80051006  0.58511056  0.11664924     0.14900
F279        F  0.76923450  0.52764531  0.16532666    -0.12400
F280        F  0.78843405  0.63093566  0.11601553    -0.12900
F281        F  0.73836060  0.56822347  0.19188243    -0.15200
F282        F  0.81973127  0.59055479  0.09031925    -0.13700
F283        F  0.77061149  0.53764548  0.06285529    -0.13700
F284        F  0.86560962  0.49396643  0.10768208    -0.15100
C285        C  0.82459043  0.34077444  0.21626181     0.14900
C286        C  0.82661720  0.36595132  0.19845072     0.01900
C287        C  0.80483542  0.38322633  0.19976221     0.16900
C288        C  0.78039348  0.37401507  0.21352182     0.26300
C289        C  0.77734692  0.34743707  0.22618588    -0.40100
C290        C  0.79999984  0.33133868  0.22947379     0.33300
C291        C  0.84643699  0.37053930  0.16771654     0.01900
F292        F  0.80612913  0.40759704  0.18239828    -0.12400
F293        F  0.79789806  0.30529451  0.23997771    -0.12900
C294        C  0.84373534  0.35529929  0.13410327     0.16900
C295        C  0.85268971  0.36547324  0.09905017     0.26300
C296        C  0.86475960  0.39083314  0.09714710    -0.40000
C297        C  0.87137678  0.40403989  0.13144158     0.33200
C298        C  0.86201911  0.39398236  0.16672256     0.14900
F299        F  0.82883493  0.33253846  0.13415399    -0.12400
F300        F  0.88362232  0.42831450  0.13036657    -0.12900
F301        F  0.84663175  0.35206067  0.06635188    -0.15200
F302        F  0.86556291  0.40854991  0.19912649    -0.13700
F303        F  0.84555181  0.32397783  0.21588288    -0.13700
F304        F  0.75897355  0.39007545  0.21022846    -0.15100
C305        C  0.09227758  0.57872842  0.79482560     0.14900
C306        C  0.09646272  0.55099025  0.79331660     0.01900
C307        C  0.10041164  0.53886178  0.75740429     0.16900
C308        C  0.09967776  0.55416497  0.72356548     0.26300
C309        C  0.09527068  0.58181656  0.72512239    -0.40100
C310        C  0.09183226  0.59402906  0.76100402     0.33300
C311        C  0.09585969  0.53464539  0.82908076     0.01900
F312        F  0.10450499  0.51212647  0.75511047    -0.12400
F313        F  0.08744256  0.62069079  0.76314261    -0.12900
C314        C  0.07245707  0.53250655  0.85078028     0.16900
C315        C  0.07150499  0.51676949  0.88417198     0.26300
C316        C  0.09409522  0.50284229  0.89683158    -0.40000
C317        C  0.11765793  0.50530403  0.87506200     0.33200
C318        C  0.11845151  0.52095736  0.84151102     0.14900
F319        F  0.05024431  0.54524690  0.83907345    -0.12400
F320        F  0.13987909  0.49212539  0.88562925    -0.12900
F321        F  0.04833012  0.51520371  0.90395626    -0.15200
F322        F  0.14138931  0.52287409  0.82119750    -0.13700
F323        F  0.08878421  0.59098707  0.82915030    -0.13700
F324        F  0.10368565  0.54214236  0.68920685    -0.15100
C325        C  0.06111694  0.34986282  0.89481357     0.14900
C326        C  0.08397688  0.33933731  0.87775764     0.01900
C327        C  0.10768079  0.35421828  0.87899393     0.16900
C328        C  0.10879183  0.37866334  0.89853701     0.26300
C329        C  0.08612697  0.38872396  0.91717180    -0.40100
C330        C  0.06213235  0.37419527  0.91433552     0.33300
C331        C  0.08308203  0.31220768  0.86064810     0.01900
F332        F  0.13003208  0.34456792  0.86258553    -0.12400
F333        F  0.03974148  0.38285366  0.93179827    -0.12900
C334        C  0.08845604  0.30824164  0.82143023     0.16900
C335        C  0.08483071  0.28291411  0.80496513     0.26300
C336        C  0.07618849  0.26110254  0.82761097    -0.40000
C337        C  0.07188725  0.26498068  0.86711302     0.33200
C338        C  0.07531941  0.29021105  0.88345102     0.14900
F339        F  0.09586278  0.32916680  0.79869998    -0.12400
F340        F  0.06256289  0.24460232  0.88939836    -0.12900
F341        F  0.08894743  0.27996963  0.76674731    -0.15200
F342        F  0.07026259  0.29337058  0.92148982    -0.13700
F343        F  0.03774988  0.33625891  0.89309041    -0.13700
F344        F  0.13219002  0.39222056  0.89965218    -0.15100
C345        C  0.07061899  0.53538601  0.11912182     0.14900
C346        C  0.09501337  0.54506205  0.13276293     0.01900
C347        C  0.11826841  0.53858365  0.11269875     0.16900
C348        C  0.11727236  0.52180875  0.08056014     0.26300
C349        C  0.09291264  0.51103626  0.06777832    -0.40100
C350        C  0.06951709  0.51868437  0.08699971     0.33300
C351        C  0.09619450  0.56067578  0.16901129     0.01900
F352        F  0.14205749  0.54835182  0.12447266    -0.12400
F353        F  0.04548512  0.50919043  0.07585464    -0.12900
C354        C  0.11107224  0.55127080  0.20035662     0.16900
C355        C  0.11140337  0.56530414  0.23504850     0.26300
C356        C  0.09665157  0.58873989  0.23921424    -0.40000
C357        C  0.08168030  0.59814495  0.20815855     0.33200
C358        C  0.08161700  0.58436357  0.17317928     0.14900
F359        F  0.12470177  0.52807807  0.19770130    -0.12400
F360        F  0.06763137  0.62099352  0.21153526    -0.12900
F361        F  0.12570841  0.55579340  0.26501432    -0.15200
F362        F  0.06762344  0.59432026  0.14318454    -0.13700
F363        F  0.04783724  0.54105973  0.13808808    -0.13700
F364        F  0.14028758  0.51587050  0.06239801    -0.15100
C365        C  0.05707504  0.36861062  0.11437090     0.14900
C366        C  0.07866116  0.35205665  0.12228270     0.01900
C367        C  0.10357623  0.35856301  0.10675933     0.16900
C368        C  0.10665577  0.38079273  0.08233821     0.26300
C369        C  0.08474169  0.39693170  0.07297788    -0.40100
C370        C  0.06003851  0.39086241  0.09020140     0.33300
C371        C  0.07444931  0.32701231  0.14442826     0.01900
F372        F  0.12465486  0.34263808  0.11380712    -0.12400
F373        F  0.03845343  0.40607929  0.08313337    -0.12900
C374        C  0.05963472  0.30611066  0.12815447     0.16900
C375        C  0.05377873  0.28309858  0.14952515     0.26300
C376        C  0.06249030  0.28051789  0.18774239    -0.40000
C377        C  0.07756842  0.30135923  0.20396327     0.33200
C378        C  0.08375366  0.32435112  0.18225765     0.14900
F379        F  0.05042492  0.30824629  0.09165823    -0.12400
F380        F  0.08584371  0.29981163  0.24087377    -0.12900
F381        F  0.03860393  0.26362887  0.13344718    -0.15200
F382        F  0.09799002  0.34443441  0.19855193    -0.13700
F383        F  0.03286369  0.36281645  0.12950129    -0.13700
F384        F  0.13086172  0.38570820  0.06662866    -0.15100
C385        C  0.02841923  0.26012844  0.69880981     0.14900
C386        C  0.00223126  0.26869330  0.70310687     0.01900
C387        C  0.99112523  0.27048787  0.74006054     0.16900
C388        C  0.00531909  0.26144897  0.77202569     0.26300
C389        C  0.03077366  0.25091828  0.76724326    -0.40100
C390        C  0.04254536  0.25111205  0.73061430     0.33300
C391        C  0.98537029  0.27114551  0.66880973     0.01900
F392        F  0.96577948  0.27871154  0.74470400    -0.12400
F393        F  0.06655841  0.23976559  0.72496416    -0.12900
C394        C  0.97886326  0.24808647  0.64793029     0.16900
C395        C  0.96268564  0.24966974  0.61558178     0.26300
C396        C  0.95264259  0.27449901  0.60338734    -0.40000
C397        C  0.95952960  0.29770077  0.62440576     0.33200
C398        C  0.97564725  0.29593868  0.65692195     0.14900
F399        F  0.98779693  0.22381861  0.65950112    -0.12400
F400        F  0.95045331  0.32215173  0.61399877    -0.12900
F401        F  0.95662177  0.22673869  0.59670937    -0.15200
F402        F  0.98183894  0.31844127  0.67674724    -0.13700
F403        F  0.03946134  0.25841738  0.66329643    -0.13700
F404        F  0.99351034  0.26097517  0.80711169    -0.15100
C405        C  0.82025826  0.23313718  0.73098757     0.14900
C406        C  0.80514579  0.25040637  0.70808637     0.01900
C407        C  0.78244186  0.26229352  0.72381604     0.16900
C408        C  0.77527861  0.25727581  0.76220499     0.26300
C409        C  0.79091200  0.24053580  0.78522176    -0.40100
C410        C  0.81321738  0.22831096  0.76914229     0.33300
C411        C  0.81470618  0.25726245  0.66898112     0.01900
F412        F  0.76745179  0.27890174  0.70210776    -0.12400
F413        F  0.82833960  0.21176598  0.79075499    -0.12900
C414        C  0.81868737  0.23702550  0.64185232     0.16900
C415        C  0.83314372  0.24227800  0.60830047     0.26300
C416        C  0.84405510  0.26796992  0.60130785    -0.40000
C417        C  0.83802823  0.28872268  0.62709108     0.33200
C418        C  0.82356097  0.28335177  0.66065808     0.14900
F419        F  0.80961768  0.21179892  0.64879485    -0.12400
F420        F  0.84751138  0.31390810  0.62125837    -0.12900
F421        F  0.83726897  0.22184790  0.58350727    -0.15200
F422        F  0.81997354  0.30324779  0.68648229    -0.13700
F423        F  0.84250012  0.22171661  0.71676827    -0.13700
F424        F  0.75379071  0.26950711  0.77726160    -0.15100
C425        C  0.96801573  0.31283370  0.37620167     0.14900
C426        C  0.98379367  0.29118332  0.36519460     0.01900
C427        C  0.98464835  0.26839454  0.38899987     0.16900
C428        C  0.96939433  0.26688475  0.42249767     0.26300
C429        C  0.95284819  0.28815986  0.43303544    -0.40100
C430        C  0.95273839  0.31140333  0.40989201     0.33300
C431        C  0.99750119  0.29079492  0.32740842     0.01900
F432        F  0.99923138  0.24688471  0.37871525    -0.12400
F433        F  0.93673613  0.33217583  0.41862137    -0.12900
C434        C  0.02466617  0.28511445  0.32543659     0.16900
C435        C  0.03607650  0.27701119  0.29080087     0.26300
C436        C  0.02061047  0.27502839  0.25736693    -0.40000
C437        C  0.99415615  0.28343680  0.25850229     0.33200
C438        C  0.98265167  0.29127767  0.29327851     0.14900
F439        F  0.03956825  0.28501200  0.35784783    -0.12400
F440        F  0.97876646  0.28141922  0.22671382    -0.12900
F441        F  0.06119566  0.26765045  0.29130879    -0.15200
F442        F  0.95633954  0.29654871  0.29429159    -0.13700
F443        F  0.96691325  0.33510025  0.35381084    -0.13700
F444        F  0.97041365  0.24424333  0.44414286    -0.15100
C445        C  0.77692813  0.27938083  0.32698900     0.14900
C446        C  0.78306631  0.29953437  0.35358512     0.01900
C447        C  0.77197909  0.32505911  0.34909856     0.16900
C448        C  0.75681168  0.33090723  0.31674911     0.26300
C449        C  0.75201597  0.31116838  0.28915894    -0.40100
C450        C  0.76109866  0.28508650  0.29526154     0.33300
C451        C  0.80341175  0.29484738  0.38311862     0.01900
F452        F  0.77676932  0.34455871  0.37525399    -0.12400
F453        F  0.75691145  0.26595339  0.26840875    -0.12900
C454        C  0.82619978  0.31117125  0.38370327     0.16900
C455        C  0.84601552  0.30657179  0.41055521     0.26300
C456        C  0.84359163  0.28534831  0.43692970    -0.40000
C457        C  0.82115723  0.26857705  0.43592788     0.33200
C458        C  0.80102301  0.27345990  0.40934630     0.14900
F459        F  0.82952342  0.33128992  0.35770872    -0.12400
F460        F  0.81827125  0.24822565  0.46161657    -0.12900
F461        F  0.86786960  0.32262705  0.41041663    -0.15200
F462        F  0.77897221  0.25772095  0.40970037    -0.13700
F463        F  0.78799532  0.25483030  0.33004749    -0.13700
F464        F  0.74743251  0.35600953  0.31157161    -0.15100
C465        C  0.96127796  0.54818671  0.60363501     0.14900
C466        C  0.97306196  0.57045593  0.62152345     0.01900
C467        C  0.96096257  0.59553497  0.61768791     0.16900
C468        C  0.93873071  0.59865798  0.59436135     0.26300
C469        C  0.92827718  0.57685750  0.57354085    -0.40100
C470        C  0.93919516  0.55132940  0.57972464     0.33300
C471        C  0.00006201  0.56884029  0.63837941     0.01900
F472        F  0.97190276  0.61761376  0.63401939    -0.12400
F473        F  0.92958409  0.52959466  0.56098333    -0.12900
C474        C  0.02112959  0.56014052  0.61520011     0.16900
C475        C  0.04727962  0.56545111  0.62572897     0.26300
C476        C  0.05291237  0.58003369  0.65910320    -0.40000
C477        C  0.03215878  0.58613468  0.68448991     0.33200
C478        C  0.00585552  0.58036650  0.67429964     0.14900
F479        F  0.01646415  0.54939504  0.58010040    -0.12400
F480        F  0.03697087  0.60048687  0.71674950    -0.12900
F481        F  0.06707573  0.55907537  0.60102366    -0.15200
F482        F  0.98595627  0.58812695  0.69794073    -0.13700
F483        F  0.97200841  0.52355398  0.60779221    -0.13700
F484        F  0.92828638  0.62347301  0.59086907    -0.15100
C485        C  0.97703251  0.60371566  0.38750057     0.14900
C486        C  0.97919492  0.58251082  0.36137425     0.01900
C487        C  0.96056056  0.56150558  0.36295955     0.16900
C488        C  0.93941646  0.56233886  0.38920493     0.26300
C489        C  0.93654976  0.58432981  0.41414237    -0.40100
C490        C  0.95598723  0.60470213  0.41340029     0.33300
C491        C  0.00157997  0.58267958  0.33369448     0.01900
F492        F  0.96254979  0.54047813  0.33865671    -0.12400
F493        F  0.95504740  0.62548683  0.43830125    -0.12900
C494        C  0.02129829  0.56306060  0.33582260     0.16900
C495        C  0.04622377  0.56791403  0.31926526     0.26300
C496        C  0.05161393  0.59241285  0.30081408    -0.40000
C497        C  0.03088896  0.61034022  0.29439178     0.33200
C498        C  0.00593084  0.60537657  0.31039369     0.14900
F499        F  0.01758341  0.54081982  0.35778221    -0.12400
F500        F  0.03580788  0.63437792  0.27737011    -0.12900
F501        F  0.06608684  0.55035503  0.32568091    -0.15200
F502        F  0.98690088  0.62423778  0.30691270    -0.13700
F503        F  0.99571546  0.62342548  0.38839929    -0.13700
F504        F  0.92157053  0.54186935  0.38963685    -0.15100
C505        C  0.78719567  0.62054322  0.60767972     0.14900
C506        C  0.78790060  0.60108858  0.63703415     0.01900
C507        C  0.80377430  0.57840448  0.63202525     0.16900
C508        C  0.81918594  0.57556666  0.59889291     0.26300
C509        C  0.81938520  0.59555864  0.57030830    -0.40100
C510        C  0.80304738  0.61795630  0.57479817     0.33300
C511        C  0.77350079  0.60501575  0.67386940     0.01900
F512        F  0.80549324  0.55962758  0.66021211    -0.12400
F513        F  0.80253281  0.63738760  0.54742493    -0.12900
C514        C  0.75625220  0.58507091  0.68824081     0.16900
C515        C  0.74463169  0.58771761  0.72453818     0.26300
C516        C  0.74976700  0.61044350  0.74696471    -0.40000
C517        C  0.76642999  0.63071126  0.73231040     0.33200
C518        C  0.77827600  0.62799670  0.69612072     0.14900
F519        F  0.75057432  0.56306060  0.66701096    -0.12400
F520        F  0.77195167  0.65267037  0.75366393    -0.12900
F521        F  0.72794324  0.56828247  0.73768717    -0.15200
F522        F  0.79524630  0.64734874  0.68345496    -0.13700
F523        F  0.77130982  0.64216145  0.61102150    -0.13700
F524        F  0.83531449  0.55408911  0.59602377    -0.15100
C525        C  0.79928058  0.59085554  0.34505346     0.14900
C526        C  0.79680711  0.61730180  0.33183489     0.01900
C527        C  0.80920487  0.63796748  0.35226290     0.16900
C528        C  0.82392270  0.63238228  0.38534163     0.26300
C529        C  0.82686198  0.60577997  0.39867013    -0.40100
C530        C  0.81420229  0.58508795  0.37799533     0.31700
C531        C  0.78159418  0.62330999  0.29641809     0.01900
F532        F  0.80693740  0.66370964  0.34020292    -0.12400
F533        F  0.81648838  0.55916928  0.38916648    -0.12900
C534        C  0.75393473  0.61996526  0.29577717     0.16900
C535        C  0.73969890  0.62474620  0.26193871     0.26300
C536        C  0.75291999  0.63271556  0.22812117    -0.40000
C537        C  0.78048788  0.63682956  0.22909867     0.33200
C538        C  0.79470813  0.63222018  0.26297223     0.14900
F539        F  0.74076615  0.61196470  0.32795407    -0.12400
F540        F  0.79358285  0.64545233  0.19722211    -0.12900
F541        F  0.71310532  0.62064729  0.26173867    -0.15200
F542        F  0.82138494  0.63584448  0.26292378    -0.13700
F543        F  0.78772681  0.57049123  0.32541959    -0.13700
F544        F  0.83546169  0.65320732  0.40398061    -0.15100
C545        C  0.16545379  0.15933248  0.23665603     0.14900
C546        C  0.13781020  0.16048590  0.23281218     0.01900
C547        C  0.12189987  0.14150264  0.25208112     0.16900
C548        C  0.13331793  0.12186807  0.27513727     0.26300
C549        C  0.16096190  0.12076924  0.27959231    -0.40100
C550        C  0.17698485  0.13966125  0.26001763     0.33300
C551        C  0.12473236  0.18309398  0.21312956     0.01900
F552        F  0.09508137  0.14287680  0.25016317    -0.12400
F553        F  0.20357509  0.14019827  0.26533459    -0.12900
C554        C  0.10757335  0.17822185  0.18221812     0.16900
C555        C  0.08796645  0.19673383  0.17286579     0.26300
C556        C  0.08497254  0.22008131  0.19485897    -0.40000
C557        C  0.10466222  0.22660317  0.22189874     0.33200
C558        C  0.12440080  0.20818748  0.23096826     0.14900
F559        F  0.10805512  0.15435866  0.16382730    -0.12400
F560        F  0.10274478  0.24891971  0.24356794    -0.12900
F561        F  0.07000366  0.19042402  0.14533002    -0.15200
F562        F  0.14093309  0.21343258  0.26073993    -0.13700
F563        F  0.18115542  0.17772994  0.21872300    -0.13700
F564        F  0.11720291  0.10418348  0.29382143    -0.15100
C565        C  0.62215171  0.21900311  0.27293194     0.14900
C566        C  0.62734011  0.24661676  0.27601345     0.01900
C567        C  0.60640096  0.26462623  0.27053577     0.16900
C568        C  0.58178611  0.25544596  0.25776177     0.26300
C569        C  0.57769942  0.22822752  0.24998255    -0.40100
C570        C  0.59758702  0.20986400  0.25947322     0.33300
C571        C  0.65498265  0.25704643  0.27512373     0.01900
F572        F  0.61058214  0.29142150  0.27300515    -0.12400
F573        F  0.59447299  0.18350091  0.25146423    -0.12900
C574        C  0.67150955  0.24971927  0.24433592     0.16900
C575        C  0.69381095  0.26508538  0.23515417     0.26300
C576        C  0.69986456  0.28814406  0.25618387    -0.40000
C577        C  0.68534492  0.29379691  0.28957491     0.33200
C578        C  0.66302931  0.27819671  0.29914877     0.14900
F579        F  0.66446731  0.22961184  0.22026471    -0.12400
F580        F  0.69110636  0.31588069  0.31057398    -0.12900
F581        F  0.70825641  0.25879429  0.20354773    -0.15200
F582        F  0.64802849  0.28509091  0.32990626    -0.13700
F583        F  0.64173427  0.20109719  0.27923352    -0.13700
F584        F  0.56264615  0.27347084  0.24954823    -0.15100
C585        C  0.64570370  0.17971180  0.80527150     0.14900
C586        C  0.65633683  0.20454545  0.79338095     0.01900
C587        C  0.63894617  0.22464988  0.78097464     0.16900
C588        C  0.61150226  0.22086262  0.78381770     0.26300
C589        C  0.60098175  0.19673480  0.79824131    -0.40100
C590        C  0.61823454  0.17584354  0.80759289     0.33300
C591        C  0.68481101  0.21085529  0.80010736     0.01900
F592        F  0.64857918  0.24863577  0.76858649    -0.12400
F593        F  0.60862718  0.15279755  0.82322106    -0.12900
C594        C  0.70509028  0.19457203  0.78547197     0.16900
C595        C  0.73153476  0.19881046  0.79657412     0.26300
C596        C  0.73793786  0.21937394  0.82230125    -0.40000
C597        C  0.71790961  0.23625477  0.83559019     0.33200
C598        C  0.69163785  0.23203058  0.82476132     0.14900
F599        F  0.69916505  0.17416060  0.76133595    -0.12400
F600        F  0.72373261  0.25623037  0.86056198    -0.12900
F601        F  0.75062898  0.18213672  0.78372615    -0.15200
F602        F  0.67262611  0.24761721  0.84047419    -0.13700
F603        F  0.66182247  0.16013821  0.81843621    -0.13700
F604        F  0.59519292  0.24145633  0.77519238    -0.15100
C605        C  0.18697670  0.14893348  0.77820661     0.14900
C606        C  0.15924407  0.14814693  0.78178629     0.01900
C607        C  0.14467035  0.12912086  0.76085376     0.16900
C608        C  0.15744027  0.11175114  0.73582682     0.26300
C609        C  0.18506266  0.11274604  0.73166055    -0.40100
C610        C  0.19986885  0.13114795  0.75343992     0.33300
C611        C  0.14458971  0.16884557  0.80314804     0.01900
F612        F  0.11782005  0.12834552  0.76314351    -0.12400
F613        F  0.22656097  0.13278969  0.74925193    -0.12900
C614        C  0.14203499  0.19441126  0.78683612     0.16900
C615        C  0.12087199  0.21073693  0.79735416     0.26300
C616        C  0.10208581  0.20170695  0.82462275    -0.40000
C617        C  0.10734676  0.17800685  0.84525734     0.33200
C618        C  0.12818519  0.16146822  0.83412589     0.14900
F619        F  0.15793402  0.20210376  0.75717490    -0.12400
F620        F  0.09048939  0.16936579  0.87324789    -0.12900
F621        F  0.11693906  0.23351050  0.77698435    -0.15200
F622        F  0.13068624  0.13705498  0.85091066    -0.13700
F623        F  0.20138732  0.16733726  0.79786050    -0.13700
F624        F  0.14274883  0.09422988  0.71494101    -0.15100
C625        C  0.43044382  0.15112290  0.91389682     0.14900
C626        C  0.44003617  0.13374435  0.88560655     0.01900
C627        C  0.42891072  0.10790469  0.88276448     0.16900
C628        C  0.40840137  0.09972420  0.90772929     0.26300
C629        C  0.39859596  0.11739520  0.93561494    -0.40100
C630        C  0.40992986  0.14312819  0.93841461     0.33300
C631        C  0.46281975  0.14248640  0.86131768     0.01900
F632        F  0.43776005  0.09073010  0.85563931    -0.12400
F633        F  0.40181799  0.16034617  0.96601279    -0.12900
C634        C  0.48717632  0.12926571  0.86418220     0.16900
C635        C  0.51028368  0.14107799  0.84922640     0.26300
C636        C  0.50934705  0.16604369  0.83058160    -0.40000
C637        C  0.48473114  0.17831840  0.82523822     0.33200
C638        C  0.46161642  0.16657192  0.84027847     0.14900
F639        F  0.48909884  0.10635257  0.88503792    -0.12400
F640        F  0.48342749  0.20281214  0.80836273    -0.12900
F641        F  0.53392341  0.12970158  0.85718176    -0.15200
F642        F  0.43831334  0.17967739  0.83675781    -0.13700
F643        F  0.44164418  0.17566609  0.91876234    -0.13700
F644        F  0.39780843  0.07481911  0.90412854    -0.15100
C645        C  0.28530971  0.05368811  0.86631393     0.14900
C646        C  0.26344304  0.06962973  0.85708585     0.01900
C647        C  0.25510933  0.08908183  0.88338330     0.16900
C648        C  0.26925722  0.09348633  0.91734913     0.26300
C649        C  0.29200087  0.07845952  0.92574876    -0.40100
C650        C  0.29942133  0.05797437  0.90033839     0.33300
C651        C  0.25092938  0.06775795  0.81863148     0.01900
F652        F  0.23408821  0.10483580  0.87520742    -0.12400
F653        F  0.32126732  0.04309097  0.90718543    -0.12900
C654        C  0.22363021  0.06259845  0.81480226     0.16900
C655        C  0.21168979  0.06348761  0.77853302     0.26300
C656        C  0.22685453  0.06949147  0.74564798    -0.40000
C657        C  0.25423104  0.07365099  0.74928840     0.33200
C658        C  0.26617306  0.07290138  0.78545422     0.14900
F659        F  0.20850491  0.05717147  0.84624311    -0.12400
F660        F  0.26903580  0.08037326  0.71803699    -0.12900
F661        F  0.18521658  0.05916263  0.77547658    -0.15200
F662        F  0.29238527  0.07881328  0.78834419    -0.13700
F663        F  0.29347254  0.03444004  0.84171740    -0.13700
F664        F  0.26097595  0.11285405  0.94166053    -0.15100
C665        C  0.45871472  0.16088550  0.19653389     0.14900
C666        C  0.46005342  0.14766605  0.16104814     0.01900
C667        C  0.48409935  0.14738896  0.14078705     0.16900
C668        C  0.50591968  0.16183758  0.15426729     0.26300
C669        C  0.50409595  0.17669663  0.18832500    -0.40100
C670        C  0.48070218  0.17522967  0.21026155     0.33300
C671        C  0.43576254  0.13799949  0.14180439     0.01900
F672        F  0.48577369  0.13491903  0.10631468    -0.12400
F673        F  0.47835144  0.18948628  0.24313888    -0.12900
C674        C  0.41835419  0.15669073  0.12592507     0.16900
C675        C  0.39771082  0.14840398  0.10202640     0.26300
C676        C  0.39398364  0.12106093  0.09345063    -0.40000
C677        C  0.41077968  0.10221604  0.11116506     0.33200
C678        C  0.43159717  0.11069224  0.13486536     0.14900
F679        F  0.42235121  0.18325390  0.13174392    -0.12400
F680        F  0.40762987  0.07561479  0.10483818    -0.12900
F681        F  0.38217906  0.16744127  0.08602138    -0.15200
F682        F  0.44818267  0.09231226  0.15019567    -0.13700
F683        F  0.43565547  0.16117114  0.21665349    -0.13700
F684        F  0.52847683  0.16254062  0.13293363    -0.15100
C685        C  0.25085927  0.08780448  0.23422149     0.14900
C686        C  0.23919935  0.08198994  0.19856489     0.01900
C687        C  0.21188255  0.07646030  0.19685433     0.16900
C688        C  0.19646673  0.07672442  0.23030363     0.26300
C689        C  0.20816513  0.08239509  0.26589094    -0.40100
C690        C  0.23544106  0.08789990  0.26766851     0.33300
C691        C  0.25536739  0.08258507  0.16301599     0.01900
F692        F  0.20021749  0.07068463  0.16277053    -0.12400
F693        F  0.24680375  0.09455891  0.30163066    -0.12900
C694        C  0.27627192  0.06459724  0.15796423     0.16900
C695        C  0.29219994  0.06594167  0.12494310     0.26300
C696        C  0.28761345  0.08554288  0.09652579    -0.40000
C697        C  0.26616393  0.10311519  0.10143617     0.33200
C698        C  0.25026598  0.10162704  0.13432421     0.14900
F699        F  0.28140147  0.04588506  0.18528405    -0.12400
F700        F  0.26070608  0.12209794  0.07464009    -0.12900
F701        F  0.31277745  0.04882569  0.12170964    -0.15200
F702        F  0.23040656  0.11947346  0.13882843    -0.13700
F703        F  0.27697596  0.09430101  0.23638570    -0.13700
F704        F  0.17014620  0.07126807  0.22815044    -0.15100
C705        C  0.22952246  0.94705085  0.60388337     0.14900
C706        C  0.25125008  0.96147369  0.61869305     0.01900
C707        C  0.27694386  0.95241533  0.61071486     0.16900
C708        C  0.28090631  0.93043941  0.58662876     0.26300
C709        C  0.25917863  0.91671012  0.57020303    -0.40100
C710        C  0.23340270  0.92482714  0.58024999     0.33300
C711        C  0.24703968  0.98728996  0.63903120     0.01900
F712        F  0.29834154  0.96522010  0.62569588    -0.12400
F713        F  0.21177048  0.91210271  0.56585003    -0.12900
C714        C  0.22916868  0.98905501  0.67007293     0.16900
C715        C  0.22183596  0.01407218  0.68453069     0.26300
C716        C  0.23239450  0.03769496  0.66838534    -0.40000
C717        C  0.25165070  0.03586524  0.63935834     0.33200
C718        C  0.25891408  0.01095590  0.62479029     0.14900
F719        F  0.21785392  0.96660757  0.68518406    -0.12400
F720        F  0.26222185  0.05840618  0.62341602    -0.12900
F721        F  0.20264478  0.01527018  0.71183754    -0.15200
F722        F  0.27599153  0.01018458  0.59462393    -0.13700
F723        F  0.20440899  0.95539275  0.61039541    -0.13700
F724        F  0.30615188  0.92303821  0.57887624    -0.15100
C725        C  0.26870586  0.96328010  0.38281053     0.14900
C726        C  0.24227347  0.96887850  0.37350922     0.01900
C727        C  0.22258798  0.94977755  0.38235422     0.16900
C728        C  0.22896758  0.92609020  0.40171220     0.26300
C729        C  0.25532204  0.92091096  0.41294692    -0.40100
C730        C  0.27521960  0.93954998  0.40215881     0.33300
C731        C  0.23462555  0.99561695  0.35845181     0.01900
F732        F  0.19680255  0.95478098  0.37429087    -0.12400
F733        F  0.30093081  0.93543752  0.41154163    -0.12900
C734        C  0.22043489  0.99817302  0.32388884     0.16900
C735        C  0.20929807  0.02276749  0.31341565     0.26300
C736        C  0.21212149  0.04512735  0.33746667    -0.40000
C737        C  0.22771530  0.04293690  0.37068340     0.33200
C738        C  0.23891158  0.01846496  0.38104609     0.14900
F739        F  0.21632030  0.97652646  0.30122987    -0.12400
F740        F  0.23091656  0.06426923  0.39424423    -0.12900
F741        F  0.19391769  0.02406963  0.28156859    -0.15200
F742        F  0.25226964  0.01663330  0.41473664    -0.13700
F743        F  0.28818287  0.98119774  0.37401322    -0.13700
F744        F  0.20897813  0.90879967  0.41071880    -0.15100
C745        C  0.53187041  0.09931241  0.65602489     0.14900
C746        C  0.54910084  0.12141631  0.65948545     0.01900
C747        C  0.56585032  0.12817085  0.62852903     0.16900
C748        C  0.56612826  0.11244597  0.59534055     0.26300
C749        C  0.54950043  0.08976370  0.59235754    -0.40100
C750        C  0.53197648  0.08369229  0.62275831     0.33300
C751        C  0.55049375  0.13646274  0.69612782     0.01900
F752        F  0.58266473  0.14943464  0.63098281    -0.12400
F753        F  0.51576334  0.06192252  0.62108022    -0.12900
C754        C  0.55726904  0.12313868  0.73038127     0.16900
C755        C  0.55846654  0.13699844  0.76515445     0.26300
C756        C  0.55289173  0.16436666  0.76632999    -0.40000
C757        C  0.54646222  0.17785658  0.73214058     0.33200
C758        C  0.54526877  0.16403317  0.69724167     0.14900
F759        F  0.56326882  0.09673977  0.72997323    -0.12400
F760        F  0.54121019  0.20441769  0.73278052    -0.12900
F761        F  0.56553778  0.12378096  0.79754143    -0.15200
F762        F  0.53858628  0.17742525  0.66469929    -0.13700
F763        F  0.51511353  0.09266032  0.68519144    -0.13700
F764        F  0.58273284  0.11939775  0.56611843    -0.15100
C765        C  0.55304437  0.13986471  0.39410160     0.14900
C766        C  0.53268164  0.13640973  0.36724032     0.01900
C767        C  0.51415300  0.11557777  0.37233491     0.16900
C768        C  0.51687785  0.09738737  0.40268721     0.26300
C769        C  0.53839931  0.09969739  0.42810438    -0.40100
C770        C  0.55591971  0.12165561  0.42427929     0.33300
C771        C  0.53259176  0.15268429  0.33181164     0.01900
F772        F  0.49402937  0.11229639  0.34696122    -0.12400
F773        F  0.57636034  0.12508063  0.44909748    -0.12900
C774        C  0.53791478  0.14047128  0.29639884     0.16900
C775        C  0.53954654  0.15580832  0.26284670     0.26300
C776        C  0.53594834  0.18355600  0.26427424    -0.40000
C777        C  0.53053882  0.19578934  0.29966038     0.33200
C778        C  0.52888930  0.18044242  0.33328625     0.14900
F779        F  0.54259504  0.11381154  0.29465229    -0.12400
F780        F  0.52669943  0.22257582  0.30144019    -0.12900
F781        F  0.54589080  0.14382237  0.22922206    -0.15200
F782        F  0.52372588  0.19259239  0.36724904    -0.13700
F783        F  0.57111597  0.15994209  0.38974818    -0.13700
F784        F  0.49949524  0.07659518  0.40559873    -0.15100
C785        C  0.23774327  0.64643397  0.22019808     0.14900
C786        C  0.21526815  0.66114954  0.23034580     0.01900
C787        C  0.21631269  0.68927510  0.22812003     0.16900
C788        C  0.23907759  0.70236090  0.21424497     0.26300
C789        C  0.26117216  0.68748821  0.20284575    -0.40100
C790        C  0.26049499  0.65949890  0.20672075     0.33300
C791        C  0.19071343  0.64710439  0.24277257     0.01900
F792        F  0.19507190  0.70402061  0.23862613    -0.12400
F793        F  0.28162904  0.64470527  0.19589907    -0.12900
C794        C  0.19117444  0.62938746  0.27424011     0.16900
C795        C  0.16776629  0.61747561  0.28757290     0.26300
C796        C  0.14352130  0.62312719  0.26981028    -0.40000
C797        C  0.14313078  0.63984151  0.23729307     0.33200
C798        C  0.16660702  0.65164488  0.22371787     0.14900
F799        F  0.21407754  0.62472838  0.29336329    -0.12400
F800        F  0.11984560  0.64639409  0.22050035    -0.12900
F801        F  0.16853927  0.60131144  0.31901593    -0.15200
F802        F  0.16570934  0.66805542  0.19255303    -0.13700
F803        F  0.23721764  0.61929220  0.22151231    -0.13700
F804        F  0.23882175  0.72931201  0.20948592    -0.15100
C805        C  0.31039241  0.78287329  0.35868992     0.14900
C806        C  0.28987687  0.77969251  0.33183888     0.01900
C807        C  0.26514315  0.79113781  0.33956412     0.16900
C808        C  0.26100093  0.80579535  0.37319861     0.26300
C809        C  0.28166243  0.80965976  0.39980924    -0.40100
C810        C  0.30640242  0.79785225  0.39222681     0.33300
C811        C  0.29405394  0.76487856  0.29538016     0.01900
F812        F  0.24491889  0.78817350  0.31427400    -0.12400
F813        F  0.32675964  0.80074488  0.41729478    -0.12900
C814        C  0.29909057  0.73725831  0.29573220     0.16900
C815        C  0.30062720  0.72301064  0.26117047     0.26300
C816        C  0.29734223  0.73617510  0.22572318    -0.40000
C817        C  0.29310684  0.76391080  0.22538038     0.33200
C818        C  0.29149270  0.77812311  0.25984741     0.14900
F819        F  0.30175824  0.72397035  0.32958487    -0.12400
F820        F  0.28950811  0.77705786  0.19162374    -0.12900
F821        F  0.30545195  0.69637245  0.26221598    -0.15200
F822        F  0.28719932  0.80487149  0.25859365    -0.13700
F823        F  0.33452064  0.77209092  0.35190877    -0.13700
F824        F  0.23698468  0.81710460  0.37886753    -0.15100
C825        C  0.65936416  0.74526111  0.28497443     0.14900
C826        C  0.67362826  0.74453422  0.25034854     0.01900
C827        C  0.67762156  0.76828709  0.22917082     0.16900
C828        C  0.66843347  0.79262989  0.24332827     0.26300
C829        C  0.65514354  0.79342850  0.27875490    -0.40100
C830        C  0.65027284  0.76955572  0.29912852     0.33300
C831        C  0.68508510  0.71915322  0.23705227     0.01900
F832        F  0.69094844  0.76794101  0.19523964    -0.12400
F833        F  0.63737576  0.76994653  0.33340384    -0.12900
C834        C  0.66857840  0.69713409  0.22911918     0.16900
C835        C  0.67932353  0.67361833  0.21464864     0.26300
C836        C  0.70670573  0.67176086  0.20808544    -0.40000
C837        C  0.72334596  0.69338822  0.21740120     0.33200
C838        C  0.71259842  0.71693422  0.23187659     0.14900
F839        F  0.64193659  0.69887540  0.23364269    -0.12400
F840        F  0.74969772  0.69248039  0.20978485    -0.12900
F841        F  0.66289438  0.65295713  0.20559275    -0.15200
F842        F  0.72896924  0.73782858  0.24000189    -0.13700
F843        F  0.65537236  0.72261537  0.30598395    -0.13700
F844        F  0.67398531  0.81554640  0.22371041    -0.15100
C845        C  0.57962222  0.90614920  0.32422836     0.14900
C846        C  0.59327046  0.92881385  0.33811221     0.01900
C847        C  0.62105097  0.92985099  0.33482237     0.16900
C848        C  0.63493442  0.90798001  0.32082709     0.26300
C849        C  0.62149303  0.88436592  0.31068808    -0.40100
C850        C  0.59366174  0.88394524  0.31091328     0.33300
C851        C  0.57948211  0.94967862  0.36079096     0.01900
F852        F  0.63505647  0.95099287  0.34867104    -0.12400
F853        F  0.58014588  0.86122660  0.30208167    -0.12900
C854        C  0.56463604  0.94238880  0.39364568     0.16900
C855        C  0.55639402  0.96186987  0.41973555     0.26300
C856        C  0.56346675  0.98882684  0.41397472    -0.40000
C857        C  0.57688426  0.99632561  0.38013643     0.33200
C858        C  0.58440776  0.97698140  0.35343225     0.14900
F859        F  0.56006288  0.91623767  0.40229571    -0.12400
F860        F  0.58342110  0.02234641  0.37354795    -0.12900
F861        F  0.54361077  0.95408378  0.45236230    -0.15200
F862        F  0.59769012  0.98478167  0.32123865    -0.13700
F863        F  0.55278118  0.90486514  0.32582477    -0.13700
F864        F  0.66182406  0.90898908  0.32037653    -0.15100
C865        C  0.18135462  0.62626897  0.72040124     0.14900
C866        C  0.17925301  0.65212641  0.73591234     0.01900
C867        C  0.15458931  0.66493270  0.73552400     0.16900
C868        C  0.13260967  0.65244370  0.71914420     0.26300
C869        C  0.13483865  0.62693318  0.70309491    -0.40100
C870        C  0.15923098  0.61379093  0.70392239     0.33300
C871        C  0.20260062  0.66607863  0.75222415     0.01900
F872        F  0.15205383  0.69007652  0.74950712    -0.12400
F873        F  0.16186320  0.58950751  0.68714766    -0.12900
C874        C  0.22573327  0.67016571  0.73023658     0.16900
C875        C  0.24765401  0.68345146  0.74598991     0.26300
C876        C  0.24647373  0.69352171  0.78358888    -0.40000
C877        C  0.22303315  0.68997113  0.80508997     0.33200
C878        C  0.20151603  0.67604677  0.78980400     0.14900
F879        F  0.22717133  0.66113164  0.69358657    -0.12400
F880        F  0.22115939  0.69949008  0.84146008    -0.12900
F881        F  0.27041536  0.68497819  0.72528592    -0.15200
F882        F  0.17982577  0.67159904  0.81219125    -0.13700
F883        F  0.20483333  0.61326966  0.72084878    -0.13700
F884        F  0.10928200  0.66567956  0.71756922    -0.15100
C885        C  0.30638383  0.79676721  0.63362093     0.14900
C886        C  0.28583723  0.77929041  0.64524910     0.01900
C887        C  0.26412188  0.77554231  0.62064725     0.16900
C888        C  0.26245890  0.78962517  0.58583253     0.26300
C889        C  0.28254546  0.80790848  0.57460786    -0.40100
C890        C  0.30483798  0.81083593  0.59867552     0.33300
C891        C  0.28693493  0.76490175  0.68288257     0.01900
F892        F  0.24441655  0.75809889  0.63034194    -0.12400
F893        F  0.32468842  0.82820895  0.58937890    -0.12900
C894        C  0.26632915  0.76738392  0.71001043     0.16900
C895        C  0.26694084  0.75305319  0.74478191     0.26300
C896        C  0.28820836  0.73610993  0.75322038    -0.40000
C897        C  0.30881472  0.73373141  0.72623612     0.33200
C898        C  0.30823957  0.74801029  0.69150650     0.14900
F899        F  0.24578372  0.78402188  0.70304983    -0.12400
F900        F  0.32893949  0.71658301  0.73274339    -0.12900
F901        F  0.24696199  0.75598635  0.77052825    -0.15200
F902        F  0.32811711  0.74464015  0.66569728    -0.13700
F903        F  0.32753124  0.80105841  0.65686171    -0.13700
F904        F  0.24094029  0.78543864  0.56329121    -0.15100
C905        C  0.66258342  0.73438501  0.71958957     0.14900
C906        C  0.68982716  0.73051746  0.72480982     0.01900
C907        C  0.70787093  0.75076409  0.71429693     0.16900
C908        C  0.69878395  0.77443922  0.69783433     0.26300
C909        C  0.67154563  0.77823618  0.69219937    -0.40100
C910        C  0.65346538  0.75811944  0.70328505     0.33300
C911        C  0.69935648  0.70539454  0.74160777     0.01900
F912        F  0.73428869  0.74724830  0.71904466    -0.12400
F913        F  0.62718658  0.76079825  0.69637711    -0.12900
C914        C  0.69668316  0.68126024  0.72147467     0.16900
C915        C  0.70422435  0.65717341  0.73863009     0.26300
C916        C  0.71464503  0.65711360  0.77600555    -0.40000
C917        C  0.71792196  0.68144735  0.79559659     0.33200
C918        C  0.71033475  0.70541326  0.77849534     0.14900
F919        F  0.68645513  0.68107906  0.68544445    -0.12400
F920        F  0.72833169  0.68196106  0.83151804    -0.12900
F921        F  0.70024065  0.63393458  0.71945703    -0.15200
F922        F  0.71291675  0.72858332  0.79836878    -0.13700
F923        F  0.64489709  0.71502807  0.72997845    -0.13700
F924        F  0.71656751  0.79354804  0.68683334    -0.15100
C925        C  0.56195564  0.93725809  0.60461461     0.14900
C926        C  0.58866993  0.93206421  0.61228628     0.01900
C927        C  0.60809616  0.95069687  0.60072424     0.16900
C928        C  0.60104766  0.97381346  0.58075105     0.26300
C929        C  0.57430660  0.97872019  0.57160108    -0.40100
C930        C  0.55477730  0.96034048  0.58448960     0.33300
C931        C  0.59678707  0.90588543  0.62790957     0.01900
F932        F  0.63415611  0.94573586  0.60676342    -0.12400
F933        F  0.52876817  0.96406728  0.57655265    -0.12900
C934        C  0.59152596  0.88265219  0.60665366     0.16900
C935        C  0.60355697  0.85864327  0.61657689     0.26300
C936        C  0.62102899  0.85750094  0.64778684    -0.40000
C937        C  0.62474426  0.88012462  0.67090438     0.33200
C938        C  0.61269109  0.90427285  0.66094773     0.14900
F939        F  0.57668201  0.88374610  0.57422408    -0.12400
F940        F  0.64193438  0.87951297  0.70079991    -0.12900
F941        F  0.59969874  0.83688255  0.59402212    -0.15200
F942        F  0.61782754  0.92646038  0.68206552    -0.13700
F943        F  0.54286379  0.91950685  0.61566920    -0.13700
F944        F  0.62067504  0.99082047  0.56925947    -0.15100
C945        C  0.58770381  0.81528633  0.75336540     0.14900
C946        C  0.60159872  0.81786230  0.78809210     0.01900
C947        C  0.62929080  0.82080792  0.78713745     0.16900
C948        C  0.64285506  0.82130753  0.75191736     0.26300
C949        C  0.62894366  0.81880047  0.71715218    -0.40100
C950        C  0.60126109  0.81577245  0.71818403     0.33300
C951        C  0.58706982  0.81719127  0.82520050     0.01900
F952        F  0.64311121  0.82346923  0.82031129    -0.12400
F953        F  0.58751147  0.81230181  0.68512840    -0.12900
C954        C  0.58784639  0.79440202  0.84879099     0.16900
C955        C  0.57266644  0.79298508  0.88252980     0.26300
C956        C  0.55638782  0.81452615  0.89359830    -0.40000
C957        C  0.55638074  0.83770104  0.87022705     0.33200
C958        C  0.57148020  0.83890833  0.83635706     0.14900
F959        F  0.60270616  0.77310649  0.83846586    -0.12400
F960        F  0.54121073  0.85900802  0.87939405    -0.12900
F961        F  0.57364056  0.77020494  0.90386132    -0.15200
F962        F  0.57068935  0.86125824  0.81409933    -0.13700
F963        F  0.56102773  0.81168300  0.75367164    -0.13700
F964        F  0.66954894  0.82466528  0.75160093    -0.15100
C965        C  0.35597949  0.77637729  0.84376081     0.14900
C966        C  0.37984086  0.76222768  0.84098512     0.01900
C967        C  0.38010937  0.73755314  0.82193935     0.16900
C968        C  0.35648228  0.72579944  0.80969605     0.26300
C969        C  0.33235489  0.73891359  0.81523427    -0.40100
C970        C  0.33230064  0.76474386  0.83082147     0.33300
C971        C  0.40316174  0.77041432  0.86381262     0.01900
F972        F  0.40299922  0.72373580  0.81847125    -0.12400
F973        F  0.30902650  0.77730161  0.83750249    -0.12900
C974        C  0.41146135  0.75387921  0.89415420     0.16900
C975        C  0.43333593  0.76097077  0.91636303     0.26300
C976        C  0.44723174  0.78495736  0.90898841    -0.40000
C977        C  0.43872950  0.80172986  0.87885823     0.33200
C978        C  0.41685483  0.79444274  0.85634292     0.14900
F979        F  0.39781533  0.73111301  0.90298214    -0.12400
F980        F  0.45180022  0.82495381  0.87088368    -0.12900
F981        F  0.44018428  0.74488678  0.94621417    -0.15200
F982        F  0.40918482  0.81064915  0.82709545    -0.13700
F983        F  0.35517881  0.80007300  0.86255910    -0.13700
F984        F  0.35682013  0.70038681  0.79616820    -0.15100
C985        C  0.35775617  0.77833528  0.11356912     0.14900
C986        C  0.38140679  0.77416436  0.13376260     0.01900
C987        C  0.38093128  0.75823657  0.16724791     0.16900
C988        C  0.35764767  0.74474966  0.17828839     0.26300
C989        C  0.33472418  0.74702217  0.15583477    -0.40100
C990        C  0.33464056  0.76475411  0.12442854     0.33300
C991        C  0.40683175  0.78155422  0.11505985     0.01900
F992        F  0.40354181  0.75400692  0.18729324    -0.12400
F993        F  0.31268388  0.76710894  0.10227895    -0.12900
C994        C  0.41287528  0.80819631  0.10516055     0.16900
C995        C  0.43433147  0.81416307  0.08075106     0.26300
C996        C  0.44999803  0.79346614  0.06561028    -0.40000
C997        C  0.44449459  0.76689510  0.07736049     0.33200
C998        C  0.42320623  0.76109667  0.10169029     0.14900
F999        F  0.39742970  0.82832147  0.11813330    -0.12400
F1000       F  0.45872675  0.74607237  0.06372319    -0.12900
F1001       F  0.43922053  0.84009399  0.07118911    -0.15200
F1002       F  0.41740257  0.73510435  0.10990632    -0.13700
F1003       F  0.35772034  0.79321088  0.08081731    -0.13700
F1004       F  0.35830713  0.72728638  0.20826226    -0.15100
C1005       C  0.58973184  0.81751522  0.20388652     0.14900
C1006       C  0.59530448  0.83683732  0.17547695     0.01900
C1007       C  0.61294143  0.85790979  0.18381326     0.16900
C1008       C  0.62545088  0.85913275  0.21971524     0.26300
C1009       C  0.62037835  0.83938040  0.24777016    -0.40100
C1010       C  0.60211473  0.81880582  0.23972801     0.33300
C1011       C  0.58305485  0.83436151  0.13699478     0.01900
F1012       F  0.61869656  0.87673171  0.15673128    -0.12400
F1013       F  0.59620569  0.80002916  0.26678084    -0.12900
C1014       C  0.56324451  0.85206988  0.12520837     0.16900
C1015       C  0.54970905  0.84786875  0.09062090     0.26300
C1016       C  0.55579993  0.82580004  0.06713419    -0.40000
C1017       C  0.57652477  0.80880946  0.07836372     0.33200
C1018       C  0.58996371  0.81306402  0.11295298     0.14900
F1019       F  0.55605205  0.87262819  0.14819835    -0.12400
F1020       F  0.58351168  0.78773353  0.05623179    -0.12900
F1021       F  0.52955557  0.86448681  0.08143681    -0.15200
F1022       F  0.60945681  0.79602861  0.12345540    -0.13700
F1023       F  0.57221927  0.79738211  0.19681349    -0.13700
F1024       F  0.64341535  0.87887282  0.22653615    -0.15100
loop_ 
_geom_bond_atom_site_label_1 
_geom_bond_atom_site_label_2 
_geom_bond_distance 
_geom_bond_site_symmetry_2 
_ccdc_geom_bond_type 
O1           Ni9   1.919       .  S
O1           C11   1.282       .  A
O2           Ni9   1.920   1_554  S
O2           C12   1.282       .  A
O3           Ni9   1.906   1_554  S
O3           C13   1.279       .  A
O4           Ni9   1.913       .  S
O4           C14   1.280       .  A
O5          Ni10   1.933       .  S
O5           C14   1.285       .  A
O6          Ni10   1.932   1_554  S
O6           C13   1.284       .  A
O7          Ni10   1.920   1_554  S
O7           C12   1.281       .  A
O8          Ni10   1.917       .  S
O8           C11   1.280       .  A
Ni9         Ni10   2.383       .  S
C11         C976   1.479       .  S
C12        C1016   1.488       .  S
C13         C996   1.491       .  S
C14         C956   1.497       .  S
N15          C19   1.356       .  A
N15          C16   1.354       .  A
N15         C949   1.444       .  S
C16         C936   1.470       .  S
C16          C17   1.382       .  A
C17          C18   1.371       .  A
C17          H20   1.082       .  S
C18          C19   1.381       .  A
C18          H21   1.081       .  S
C19         C909   1.469       .  S
N22          C26   1.362       .  A
N22          C23   1.357       .  A
N22         C896   1.446       .  S
C23         C969   1.469       .  S
C23          C24   1.378       .  A
C24          C25   1.367       .  A
C24          H27   1.084       .  S
C25          C26   1.384       .  A
C25          H28   1.084       .  S
C26         C876   1.480       .  S
N29          C33   1.358       .  A
N29          C30   1.358       .  A
N29        C1009   1.443       .  S
C30         C849   1.478       .  S
C30          C31   1.384       .  A
C31          C32   1.370       .  A
C31          H34   1.083       .  S
C32          C33   1.380       .  A
C32          H35   1.082       .  S
C33         C829   1.472       .  S
N36          C40   1.360       .  A
N36          C37   1.357       .  A
N36         C816   1.444       .  S
C37         C989   1.474       .  S
C37          C38   1.381       .  A
C38          C39   1.369       .  A
C38          H41   1.083       .  S
C39          C40   1.382       .  A
C39          H42   1.083       .  S
C40         C789   1.476       .  S
O43         Ni51   1.916       .  S
O43          C53   1.281       .  A
O44         Ni51   1.915       .  S
O44          C54   1.281       .  A
O45         Ni51   1.911       .  S
O45          C55   1.281       .  A
O46         Ni51   1.903       .  S
O46          C56   1.279       .  A
O47         Ni52   1.922       .  S
O47          C56   1.282       .  A
O48         Ni52   1.916       .  S
O48          C55   1.281       .  A
O49         Ni52   1.925       .  S
O49          C54   1.283       .  A
O50         Ni52   1.925       .  S
O50          C53   1.282       .  A
Ni51        Ni52   2.386       .  S
C53         C856   1.476   1_545  S
C54         C749   1.484       .  S
C55         C929   1.486   1_545  S
C56         C769   1.477       .  S
O57         Ni65   1.915       .  S
O57          C67   1.281       .  A
O58         Ni65   1.918       .  S
O58          C68   1.281       .  A
O59         Ni65   1.926       .  S
O59          C69   1.284       .  A
O60         Ni65   1.928       .  S
O60          C70   1.284       .  A
O61         Ni66   1.925       .  S
O61          C70   1.282       .  A
O62         Ni66   1.917       .  S
O62          C69   1.281       .  A
O63         Ni66   1.931       .  S
O63          C68   1.284       .  A
O64         Ni66   1.932       .  S
O64          C67   1.285       .  A
Ni65        Ni66   2.380       .  S
C67         C729   1.497       .  S
C68         C889   1.496       .  S
C69         C709   1.494       .  S
C70         C809   1.492       .  S
O71         Ni79   1.905       .  S
O71          C81   1.278       .  A
O72         Ni79   1.907   1_556  S
O72          C82   1.279       .  A
O73         Ni79   1.919   1_556  S
O73          C83   1.282       .  A
O74         Ni79   1.917       .  S
O74          C84   1.282       .  A
O75         Ni80   1.920       .  S
O75          C84   1.282       .  A
O76         Ni80   1.922   1_556  S
O76          C83   1.282       .  A
O77         Ni80   1.933   1_556  S
O77          C82   1.284       .  A
O78         Ni80   1.933       .  S
O78          C81   1.285       .  A
Ni79        Ni80   2.384       .  S
C81         C696   1.487       .  S
C82         C629   1.482       .  S
C83         C649   1.486       .  S
C84         C676   1.491       .  S
N85          C89   1.356       .  A
N85          C86   1.357       .  A
N85         C656   1.438       .  S
C86         C716   1.481       .  S
C86          C87   1.384       .  A
C87          C88   1.376       .  A
C87          H90   1.083       .  S
C88          C89   1.381       .  A
C88          H91   1.082       .  S
C89         C609   1.479       .  S
N92          C96   1.356       .  A
N92          C93   1.357       .  A
N92         C756   1.438       .  S
C93         C636   1.477       .  S
C93          C94   1.381       .  A
C94          C95   1.374       .  A
C94          H97   1.083       .  S
C95          C96   1.382       .  A
C95          H98   1.083       .  S
C96         C589   1.477       .  S
N99         C103   1.355       .  A
N99         C100   1.356       .  A
N99         C776   1.436       .  S
C100        C669   1.480       .  S
C100        C101   1.382       .  A
C101        C102   1.374       .  A
C101        H104   1.082       .  S
C102        C103   1.382       .  A
C102        H105   1.082       .  S
C103        C569   1.479       .  S
N106        C110   1.359       .  A
N106        C107   1.357       .  A
N106        C689   1.437       .  S
C107        C736   1.484       .  S
C107        C108   1.382       .  A
C108        C109   1.375       .  A
C108        H111   1.082       .  S
C109        C110   1.384       .  A
C109        H112   1.082       .  S
C110        C549   1.487       .  S
O113       Ni121   1.911       .  S
O113        C123   1.280       .  A
O114       Ni121   1.912       .  S
O114        C124   1.280       .  A
O115       Ni121   1.917       .  S
O115        C125   1.281       .  A
O116       Ni121   1.915       .  S
O116        C126   1.282       .  A
O117       Ni122   1.920       .  S
O117        C126   1.281       .  A
O118       Ni122   1.920       .  S
O118        C125   1.282       .  A
O119       Ni122   1.935       .  S
O119        C124   1.286       .  A
O120       Ni122   1.930       .  S
O120        C123   1.284       .  A
Ni121      Ni122   2.383       .  S
C123        C469   1.492       .  S
C124        C529   1.498       .  S
C125        C509   1.479       .  S
C126        C489   1.486       .  S
O127       Ni135   1.922       .  S
O127        C137   1.282       .  A
O128       Ni135   1.923       .  S
O128        C138   1.284       .  A
O129       Ni135   1.908       .  S
O129        C139   1.279       .  A
O130       Ni135   1.913       .  S
O130        C140   1.281       .  A
O131       Ni136   1.925       .  S
O131        C140   1.283       .  A
O132       Ni136   1.926       .  S
O132        C139   1.284       .  A
O133       Ni136   1.904       .  S
O133        C138   1.278       .  A
O134       Ni136   1.897       .  S
O134        C137   1.277       .  A
Ni135      Ni136   2.385       .  S
C137        C456   1.465       .  S
C138        C396   1.487       .  S
C139        C416   1.488       .  S
C140        C429   1.486       .  S
O141       Ni149   1.916   1_554  S
O141        C151   1.282       .  A
O142       Ni149   1.919       .  S
O142        C152   1.282       .  A
O143       Ni149   1.917       .  S
O143        C153   1.282       .  A
O144       Ni149   1.919   1_554  S
O144        C154   1.282       .  A
O145       Ni150   1.925   1_554  S
O145        C154   1.283       .  A
O146       Ni150   1.922       .  S
O146        C153   1.282       .  A
O147       Ni150   1.925       .  S
O147        C152   1.283       .  A
O148       Ni150   1.925   1_554  S
O148        C151   1.283       .  A
Ni149      Ni150   2.381       .  S
C151        C369   1.492       .  S
C152        C316   1.494       .  S
C153        C329   1.490       .  S
C154        C349   1.495       .  S
N155        C159   1.357       .  A
N155        C156   1.356       .  A
N155        C309   1.440       .  S
C156        C869   1.467       .  S
C156        C157   1.378       .  A
C157        C158   1.370       .  A
C157        H160   1.084       .  S
C158        C159   1.384       .  A
C158        H161   1.084       .  S
C159        C476   1.478       .  S
N162        C166   1.361       .  A
N162        C163   1.355       .  A
N162        C336   1.442       .  S
C163        C389   1.471       .  S
C163        C164   1.378       .  A
C164        C165   1.368       .  A
C164        H167   1.083       .  S
C165        C166   1.387       .  A
C165        H168   1.083       .  S
C166        C616   1.489       .  S
N169        C173   1.361       .  A
N169        C170   1.358       .  A
N169        C376   1.442       .  S
C170        C436   1.478       .  S
C170        C171   1.380       .  A
C171        C172   1.367       .  A
C171        H174   1.085   1_455  S
C172        C173   1.384       .  A
C172        H175   1.084       .  S
C173        C556   1.486       .  S
N176        C180   1.354       .  A
N176        C177   1.356       .  A
N176        C356   1.438       .  S
C177        C796   1.473       .  S
C177        C178   1.381       .  A
C178        C179   1.370       .  A
C178        H181   1.084       .  S
C179        C180   1.381       .  A
C179        H182   1.084       .  S
C180        C496   1.469       .  S
O183       Ni191   1.922       .  S
O183        C193   1.282       .  A
O184       Ni191   1.934   1_556  S
O184        C194   1.283       .  A
O185       Ni191   1.930   1_556  S
O185        C195   1.284       .  A
O186       Ni191   1.929       .  S
O186        C196   1.282       .  A
O187       Ni192   1.901   1_554  S
O187        C196   1.279       .  A
O188       Ni192   1.902       .  S
O188        C195   1.278       .  A
O189       Ni192   1.897       .  S
O189        C194   1.277       .  A
O190       Ni192   1.905   1_554  S
O190        C193   1.279       .  A
Ni191      Ni192   2.392   1_554  S
C193        C269   1.472       .  S
C194        C249   1.465       .  S
C195        C229   1.472       .  S
C196        C296   1.471       .  S
N197        C201   1.356       .  A
N197        C198   1.354       .  A
N197        C409   1.438       .  S
C198        C596   1.476       .  S
C198        C199   1.383       .  A
C199        C200   1.377       .  A
C199        H202   1.083       .  S
C200        C201   1.381       .  A
C200        H203   1.082       .  S
C201        C256   1.481       .  S
N204        C208   1.355       .  A
N204        C205   1.356       .  A
N204        C516   1.441       .  S
C205        C916   1.474       .  S
C205        C206   1.382       .  A
C206        C207   1.372       .  A
C206        H209   1.083       .  S
C207        C208   1.382       .  A
C207        H210   1.082       .  S
C208        C236   1.476       .  S
N211        C215   1.353       .  A
N211        C212   1.356       .  A
N211        C536   1.444       .  S
C212        C836   1.471       .  S
C212        C213   1.383       .  A
C213        C214   1.371       .  A
C213        H216   1.083       .  S
C214        C215   1.379       .  A
C214        H217   1.085       .  S
C215        C276   1.465       .  S
N218        C222   1.356       .  A
N218        C219   1.351       .  A
N218        C449   1.431       .  S
C219        C576   1.474       .  S
C219        C220   1.382       .  A
C220        C221   1.374       .  A
C220        H223   1.082       .  S
C221        C222   1.384       .  A
C221        H224   1.082       .  S
C222        C289   1.484       .  S
C225        C226   1.410       .  A
C225        C230   1.401       .  A
C225        F243   1.358       .  S
C226        C231   1.486       .  S
C226        C227   1.406       .  A
C227        C228   1.397       .  A
C227        F232   1.358       .  S
C228        C229   1.404       .  A
C228        F244   1.358       .  S
C229        C230   1.405       .  A
C230        F233   1.358       .  S
C231        C234   1.407       .  A
C231        C238   1.409       .  A
C234        C235   1.401       .  A
C234        F239   1.358       .  S
C235        C236   1.406       .  A
C235        F241   1.357       .  S
C236        C237   1.402       .  A
C237        C238   1.395       .  A
C237        F240   1.358       .  S
C238        F242   1.358       .  S
C245        C246   1.411       .  A
C245        C250   1.398       .  A
C245        F263   1.357       .  S
C246        C251   1.494       .  S
C246        C247   1.411       .  A
C247        C248   1.401       .  A
C247        F252   1.358       .  S
C248        C249   1.402       .  A
C248        F264   1.358       .  S
C249        C250   1.401       .  A
C250        F253   1.358       .  S
C251        C254   1.411       .  A
C251        C258   1.410       .  A
C254        C255   1.396       .  A
C254        F259   1.358       .  S
C255        C256   1.403       .  A
C255        F261   1.358       .  S
C256        C257   1.405       .  A
C257        C258   1.404       .  A
C257        F260   1.357       .  S
C258        F262   1.358       .  S
C265        C266   1.401       .  A
C265        C270   1.392       .  A
C265        F283   1.359       .  S
C266        C271   1.468       .  S
C266        C267   1.402       .  A
C267        C268   1.401       .  A
C267        F272   1.357       .  S
C268        C269   1.408       .  A
C268        F284   1.357       .  S
C269        C270   1.406       .  A
C270        F273   1.358       .  S
C271        C274   1.404       .  A
C271        C278   1.402       .  A
C274        C275   1.398       .  A
C274        F279   1.358       .  S
C275        C276   1.402       .  A
C275        F281   1.358       .  S
C276        C277   1.403       .  A
C277        C278   1.395       .  A
C277        F280   1.358       .  S
C278        F282   1.358       .  S
C285        C286   1.403       .  A
C285        C290   1.400       .  A
C285        F303   1.358       .  S
C286        C291   1.478       .  S
C286        C287   1.406       .  A
C287        C288   1.396       .  A
C287        F292   1.358       .  S
C288        C289   1.405       .  A
C288        F304   1.358       .  S
C289        C290   1.410       .  A
C290        F293   1.354       .  S
C291        C294   1.406       .  A
C291        C298   1.406       .  A
C294        C295   1.392       .  A
C294        F299   1.359       .  S
C295        C296   1.403       .  A
C295        F301   1.358       .  S
C296        C297   1.407       .  A
C297        C298   1.404       .  A
C297        F300   1.358       .  S
C298        F302   1.357       .  S
C305        C306   1.406       .  A
C305        C310   1.401       .  A
C305        F323   1.358       .  S
C306        C311   1.486       .  S
C306        C307   1.407       .  A
C307        C308   1.402       .  A
C307        F312   1.358       .  S
C308        C309   1.404       .  A
C308        F324   1.357       .  S
C309        C310   1.404       .  A
C310        F313   1.356       .  S
C311        C314   1.404       .  A
C311        C318   1.404       .  A
C314        C315   1.401       .  A
C314        F319   1.358       .  S
C315        C316   1.413       .  A
C315        F321   1.358       .  S
C316        C317   1.413       .  A
C317        C318   1.403       .  A
C317        F320   1.358       .  S
C318        F322   1.358       .  S
C325        C326   1.405       .  A
C325        C330   1.398       .  A
C325        F343   1.358       .  S
C326        C331   1.485       .  S
C326        C327   1.405       .  A
C327        C328   1.403       .  A
C327        F332   1.358       .  S
C328        C329   1.412       .  A
C328        F344   1.358       .  S
C329        C330   1.411       .  A
C330        F333   1.358       .  S
C331        C334   1.407       .  A
C331        C338   1.405       .  A
C334        C335   1.404       .  A
C334        F339   1.358       .  S
C335        C336   1.408       .  A
C335        F341   1.355       .  S
C336        C337   1.406       .  A
C337        C338   1.396       .  A
C337        F340   1.357       .  S
C338        F342   1.358       .  S
C345        C346   1.404       .  A
C345        C350   1.400       .  A
C345        F363   1.358       .  S
C346        C351   1.488       .  S
C346        C347   1.406       .  A
C347        C348   1.403       .  A
C347        F352   1.358       .  S
C348        C349   1.412       .  A
C348        F364   1.358       .  S
C349        C350   1.413       .  A
C350        F353   1.358       .  S
C351        C354   1.408       .  A
C351        C358   1.409       .  A
C354        C355   1.400       .  A
C354        F359   1.358       .  S
C355        C356   1.403       .  A
C355        F361   1.357       .  S
C356        C357   1.403       .  A
C357        C358   1.402       .  A
C357        F360   1.356       .  S
C358        F362   1.358       .  S
C365        C366   1.402       .  A
C365        C370   1.398       .  A
C365        F383   1.358       .  S
C366        C371   1.480       .  S
C366        C367   1.403       .  A
C367        C368   1.403       .  A
C367        F372   1.358       .  S
C368        C369   1.414       .  A
C368        F384   1.358       .  S
C369        C370   1.412       .  A
C370        F373   1.358       .  S
C371        C374   1.403       .  A
C371        C378   1.405       .  A
C374        C375   1.396       .  A
C374        F379   1.358       .  S
C375        C376   1.408       .  A
C375        F381   1.358       .  S
C376        C377   1.407       .  A
C377        C378   1.405       .  A
C377        F380   1.354       .  S
C378        F382   1.357       .  S
C385        C386   1.402       .  A
C385        C390   1.394       .  A
C385        F403   1.358       .  S
C386        C391   1.474   1_455  S
C386        C387   1.405   1_455  A
C387        C388   1.401   1_655  A
C387        F392   1.358       .  S
C388        C389   1.404       .  A
C388        F404   1.358   1_455  S
C389        C390   1.405       .  A
C390        F393   1.358       .  S
C391        C394   1.403       .  A
C391        C398   1.399       .  A
C394        C395   1.396       .  A
C394        F399   1.358       .  S
C395        C396   1.410       .  A
C395        F401   1.358       .  S
C396        C397   1.416       .  A
C397        C398   1.399       .  A
C397        F400   1.358       .  S
C398        F402   1.358       .  S
C405        C406   1.405       .  A
C405        C410   1.393       .  A
C405        F423   1.358       .  S
C406        C411   1.480       .  S
C406        C407   1.407       .  A
C407        C408   1.404       .  A
C407        F412   1.357       .  S
C408        C409   1.405       .  A
C408        F424   1.356       .  S
C409        C410   1.403       .  A
C410        F413   1.357       .  S
C411        C414   1.403       .  A
C411        C418   1.404       .  A
C414        C415   1.398       .  A
C414        F419   1.358       .  S
C415        C416   1.413       .  A
C415        F421   1.358       .  S
C416        C417   1.411       .  A
C417        C418   1.400       .  A
C417        F420   1.357       .  S
C418        F422   1.358       .  S
C425        C426   1.405       .  A
C425        C430   1.403       .  A
C425        F443   1.357       .  S
C426        C431   1.485       .  S
C426        C427   1.407       .  A
C427        C428   1.397       .  A
C427        F432   1.358       .  S
C428        C429   1.409       .  A
C428        F444   1.358       .  S
C429        C430   1.411       .  A
C430        F433   1.357       .  S
C431        C434   1.405   1_655  A
C431        C438   1.407       .  A
C434        C435   1.398       .  A
C434        F439   1.358       .  S
C435        C436   1.407       .  A
C435        F441   1.357       .  S
C436        C437   1.405   1_455  A
C437        C438   1.401       .  A
C437        F440   1.358       .  S
C438        F442   1.358       .  S
C445        C446   1.405       .  A
C445        C450   1.395       .  A
C445        F463   1.358       .  S
C446        C451   1.475       .  S
C446        C447   1.407       .  A
C447        C448   1.395       .  A
C447        F452   1.358       .  S
C448        C449   1.401       .  A
C448        F464   1.357       .  S
C449        C450   1.402       .  A
C450        F453   1.357       .  S
C451        C454   1.405       .  A
C451        C458   1.407       .  A
C454        C455   1.391       .  A
C454        F459   1.358       .  S
C455        C456   1.404       .  A
C455        F461   1.359       .  S
C456        C457   1.404       .  A
C457        C458   1.399       .  A
C457        F460   1.358       .  S
C458        F462   1.358       .  S
C465        C466   1.407       .  A
C465        C470   1.403       .  A
C465        F483   1.358       .  S
C466        C471   1.489   1_655  S
C466        C467   1.406       .  A
C467        C468   1.397       .  A
C467        F472   1.358       .  S
C468        C469   1.412       .  A
C468        F484   1.358       .  S
C469        C470   1.411       .  A
C470        F473   1.357       .  S
C471        C474   1.407       .  A
C471        C478   1.410       .  A
C474        C475   1.395       .  A
C474        F479   1.358       .  S
C475        C476   1.403       .  A
C475        F481   1.358       .  S
C476        C477   1.406       .  A
C477        C478   1.404       .  A
C477        F480   1.357       .  S
C478        F482   1.358   1_455  S
C485        C486   1.406       .  A
C485        C490   1.393       .  A
C485        F503   1.359       .  S
C486        C491   1.483   1_655  S
C486        C487   1.405       .  A
C487        C488   1.404       .  A
C487        F492   1.357       .  S
C488        C489   1.413       .  A
C488        F504   1.358       .  S
C489        C490   1.408       .  A
C490        F493   1.358       .  S
C491        C494   1.406       .  A
C491        C498   1.407       .  A
C494        C495   1.402       .  A
C494        F499   1.357       .  S
C495        C496   1.404       .  A
C495        F501   1.358       .  S
C496        C497   1.402       .  A
C497        C498   1.396       .  A
C497        F500   1.358       .  S
C498        F502   1.358   1_455  S
C505        C506   1.408       .  A
C505        C510   1.402       .  A
C505        F523   1.358       .  S
C506        C511   1.487       .  S
C506        C507   1.407       .  A
C507        C508   1.398       .  A
C507        F512   1.358       .  S
C508        C509   1.407       .  A
C508        F524   1.358       .  S
C509        C510   1.407       .  A
C510        F513   1.358       .  S
C511        C514   1.407       .  A
C511        C518   1.409       .  A
C514        C515   1.399       .  A
C514        F519   1.358       .  S
C515        C516   1.405       .  A
C515        F521   1.357       .  S
C516        C517   1.404       .  A
C517        C518   1.401       .  A
C517        F520   1.357       .  S
C518        F522   1.358       .  S
C525        C526   1.405       .  A
C525        C530   1.404       .  A
C525        F543   1.358       .  S
C526        C531   1.485       .  S
C526        C527   1.401       .  A
C527        C528   1.401       .  A
C527        F532   1.358       .  S
C528        C529   1.416       .  A
C528        F544   1.358       .  S
C529        C530   1.413       .  A
C530        F533   1.357       .  S
C531        C534   1.406       .  A
C531        C538   1.406       .  A
C534        C535   1.402       .  A
C534        F539   1.357       .  S
C535        C536   1.406       .  A
C535        F541   1.357       .  S
C536        C537   1.406       .  A
C537        C538   1.402       .  A
C537        F540   1.356       .  S
C538        F542   1.358       .  S
C545        C546   1.405       .  A
C545        C550   1.405       .  A
C545        F563   1.357       .  S
C546        C551   1.481       .  S
C546        C547   1.404       .  A
C547        C548   1.395       .  A
C547        F552   1.359       .  S
C548        C549   1.407       .  A
C548        F564   1.358       .  S
C549        C550   1.410       .  A
C550        F553   1.356       .  S
C551        C554   1.404       .  A
C551        C558   1.403       .  A
C554        C555   1.400       .  A
C554        F559   1.358       .  S
C555        C556   1.409       .  A
C555        F561   1.358       .  S
C556        C557   1.408       .  A
C557        C558   1.399       .  A
C557        F560   1.355       .  S
C558        F562   1.358       .  S
C565        C566   1.408       .  A
C565        C570   1.401       .  A
C565        F583   1.358       .  S
C566        C571   1.486       .  S
C566        C567   1.408       .  A
C567        C568   1.396       .  A
C567        F572   1.358       .  S
C568        C569   1.403       .  A
C568        F584   1.358       .  S
C569        C570   1.406       .  A
C570        F573   1.357       .  S
C571        C574   1.409       .  A
C571        C578   1.410       .  A
C574        C575   1.393       .  A
C574        F579   1.358       .  S
C575        C576   1.401       .  A
C575        F581   1.358       .  S
C576        C577   1.404       .  A
C577        C578   1.403       .  A
C577        F580   1.357       .  S
C578        F582   1.358       .  S
C585        C586   1.408       .  A
C585        C590   1.401       .  A
C585        F603   1.358       .  S
C586        C591   1.489       .  S
C586        C587   1.408       .  A
C587        C588   1.400       .  A
C587        F592   1.358       .  S
C588        C589   1.404       .  A
C588        F604   1.358       .  S
C589        C590   1.404       .  A
C590        F593   1.357       .  S
C591        C594   1.410       .  A
C591        C598   1.408       .  A
C594        C595   1.406       .  A
C594        F599   1.357       .  S
C595        C596   1.403       .  A
C595        F601   1.357       .  S
C596        C597   1.403       .  A
C597        C598   1.395       .  A
C597        F600   1.358       .  S
C598        F602   1.358       .  S
C605        C606   1.406       .  A
C605        C610   1.405       .  A
C605        F623   1.357       .  S
C606        C611   1.481       .  S
C606        C607   1.406       .  A
C607        C608   1.395       .  A
C607        F612   1.358       .  S
C608        C609   1.403       .  A
C608        F624   1.358       .  S
C609        C610   1.407       .  A
C610        F613   1.357       .  S
C611        C614   1.403       .  A
C611        C618   1.404       .  A
C614        C615   1.400       .  A
C614        F619   1.358       .  S
C615        C616   1.410       .  A
C615        F621   1.355       .  S
C616        C617   1.410       .  A
C617        C618   1.400       .  A
C617        F620   1.358       .  S
C618        F622   1.358       .  S
C625        C626   1.405       .  A
C625        C630   1.395       .  A
C625        F643   1.358       .  S
C626        C631   1.487       .  S
C626        C627   1.408       .  A
C627        C628   1.407       .  A
C627        F632   1.357       .  S
C628        C629   1.408       .  A
C628        F644   1.357       .  S
C629        C630   1.408       .  A
C630        F633   1.358       .  S
C631        C634   1.406       .  A
C631        C638   1.408       .  A
C634        C635   1.401       .  A
C634        F639   1.358       .  S
C635        C636   1.405       .  A
C635        F641   1.356       .  S
C636        C637   1.404       .  A
C637        C638   1.401       .  A
C637        F640   1.358       .  S
C638        F642   1.358       .  S
C645        C646   1.405       .  A
C645        C650   1.401       .  A
C645        F663   1.358       .  S
C646        C651   1.485       .  S
C646        C647   1.406       .  A
C647        C648   1.401       .  A
C647        F652   1.358       .  S
C648        C649   1.409       .  A
C648        F664   1.358       .  S
C649        C650   1.410       .  A
C650        F653   1.358       .  S
C651        C654   1.407       .  A
C651        C658   1.407       .  A
C654        C655   1.401       .  A
C654        F659   1.358       .  S
C655        C656   1.405       .  A
C655        F661   1.357       .  S
C656        C657   1.402       .  A
C657        C658   1.398       .  A
C657        F660   1.357       .  S
C658        F662   1.358       .  S
C665        C666   1.406       .  A
C665        C670   1.403       .  A
C665        F683   1.357       .  S
C666        C671   1.478       .  S
C666        C667   1.403       .  A
C667        C668   1.396       .  A
C667        F672   1.358       .  S
C668        C669   1.406       .  A
C668        F684   1.358       .  S
C669        C670   1.406       .  A
C670        F673   1.357       .  S
C671        C674   1.402       .  A
C671        C678   1.402       .  A
C674        C675   1.397       .  A
C674        F679   1.358       .  S
C675        C676   1.412       .  A
C675        F681   1.358       .  S
C676        C677   1.414       .  A
C677        C678   1.402       .  A
C677        F680   1.358       .  S
C678        F682   1.358       .  S
C685        C686   1.406       .  A
C685        C690   1.399       .  A
C685        F703   1.358       .  S
C686        C691   1.481       .  S
C686        C687   1.406       .  A
C687        C688   1.399       .  A
C687        F692   1.357       .  S
C688        C689   1.403       .  A
C688        F704   1.357       .  S
C689        C690   1.404       .  A
C690        F693   1.357       .  S
C691        C694   1.405       .  A
C691        C698   1.402       .  A
C694        C695   1.402       .  A
C694        F699   1.358       .  S
C695        C696   1.410       .  A
C695        F701   1.357       .  S
C696        C697   1.412       .  A
C697        C698   1.398       .  A
C697        F700   1.358       .  S
C698        F702   1.358       .  S
C705        C706   1.408       .  A
C705        C710   1.401       .  A
C705        F723   1.358       .  S
C706        C711   1.493       .  S
C706        C707   1.406       .  A
C707        C708   1.401       .  A
C707        F712   1.358       .  S
C708        C709   1.413       .  A
C708        F724   1.358       .  S
C709        C710   1.411       .  A
C710        F713   1.358       .  S
C711        C714   1.410       .  A
C711        C718   1.409   1_565  A
C714        C715   1.404   1_565  A
C714        F719   1.358       .  S
C715        C716   1.405       .  A
C715        F721   1.357       .  S
C716        C717   1.404       .  A
C717        C718   1.399       .  A
C717        F720   1.358       .  S
C718        F722   1.358       .  S
C725        C726   1.405       .  A
C725        C730   1.404       .  A
C725        F743   1.358       .  S
C726        C731   1.488       .  S
C726        C727   1.405       .  A
C727        C728   1.400       .  A
C727        F732   1.358       .  S
C728        C729   1.414       .  A
C728        F744   1.358       .  S
C729        C730   1.413       .  A
C730        F733   1.357       .  S
C731        C734   1.408       .  A
C731        C738   1.406   1_565  A
C734        C735   1.404   1_565  A
C734        F739   1.358       .  S
C735        C736   1.407       .  A
C735        F741   1.357       .  S
C736        C737   1.405       .  A
C737        C738   1.399       .  A
C737        F740   1.358       .  S
C738        F742   1.358       .  S
C745        C746   1.406       .  A
C745        C750   1.400       .  A
C745        F763   1.358       .  S
C746        C751   1.486       .  S
C746        C747   1.406       .  A
C747        C748   1.401       .  A
C747        F752   1.358       .  S
C748        C749   1.409       .  A
C748        F764   1.358       .  S
C749        C750   1.408       .  A
C750        F753   1.358       .  S
C751        C754   1.407       .  A
C751        C758   1.407       .  A
C754        C755   1.399       .  A
C754        F759   1.358       .  S
C755        C756   1.401       .  A
C755        F761   1.354       .  S
C756        C757   1.405       .  A
C757        C758   1.402       .  A
C757        F760   1.357       .  S
C758        F762   1.358       .  S
C765        C766   1.402       .  A
C765        C770   1.395       .  A
C765        F783   1.358       .  S
C766        C771   1.474       .  S
C766        C767   1.404       .  A
C767        C768   1.398       .  A
C767        F772   1.358       .  S
C768        C769   1.408       .  A
C768        F784   1.358       .  S
C769        C770   1.409       .  A
C770        F773   1.358       .  S
C771        C774   1.405       .  A
C771        C778   1.404       .  A
C774        C775   1.396       .  A
C774        F779   1.358       .  S
C775        C776   1.402       .  A
C775        F781   1.357       .  S
C776        C777   1.406       .  A
C777        C778   1.398       .  A
C777        F780   1.357       .  S
C778        F782   1.358       .  S
C785        C786   1.404       .  A
C785        C790   1.395       .  A
C785        F803   1.358       .  S
C786        C791   1.482       .  S
C786        C787   1.409       .  A
C787        C788   1.401       .  A
C787        F792   1.358       .  S
C788        C789   1.404       .  A
C788        F804   1.357       .  S
C789        C790   1.406       .  A
C790        F793   1.358       .  S
C791        C794   1.406       .  A
C791        C798   1.408       .  A
C794        C795   1.396       .  A
C794        F799   1.358       .  S
C795        C796   1.404       .  A
C795        F801   1.358       .  S
C796        C797   1.404       .  A
C797        C798   1.399       .  A
C797        F800   1.357       .  S
C798        F802   1.358       .  S
C805        C806   1.406       .  A
C805        C810   1.406       .  A
C805        F823   1.358       .  S
C806        C811   1.488       .  S
C806        C807   1.405       .  A
C807        C808   1.401       .  A
C807        F812   1.358       .  S
C808        C809   1.410       .  A
C808        F824   1.358       .  S
C809        C810   1.412       .  A
C810        F813   1.358       .  S
C811        C814   1.407       .  A
C811        C818   1.407       .  A
C814        C815   1.404       .  A
C814        F819   1.357       .  S
C815        C816   1.406       .  A
C815        F821   1.357       .  S
C816        C817   1.406       .  A
C817        C818   1.400       .  A
C817        F820   1.357       .  S
C818        F822   1.358       .  S
C825        C826   1.403       .  A
C825        C830   1.395       .  A
C825        F843   1.358       .  S
C826        C831   1.476       .  S
C826        C827   1.407       .  A
C827        C828   1.399       .  A
C827        F832   1.358       .  S
C828        C829   1.403       .  A
C828        F844   1.358       .  S
C829        C830   1.405       .  A
C830        F833   1.358       .  S
C831        C834   1.404       .  A
C831        C838   1.406       .  A
C834        C835   1.396       .  A
C834        F839   1.358       .  S
C835        C836   1.405       .  A
C835        F841   1.358       .  S
C836        C837   1.403       .  A
C837        C838   1.397       .  A
C837        F840   1.358       .  S
C838        F842   1.358       .  S
C845        C846   1.409       .  A
C845        C850   1.403       .  A
C845        F863   1.357       .  S
C846        C851   1.489       .  S
C846        C847   1.408       .  A
C847        C848   1.394       .  A
C847        F852   1.358       .  S
C848        C849   1.404       .  A
C848        F864   1.359       .  S
C849        C850   1.406       .  A
C850        F853   1.357       .  S
C851        C854   1.410       .  A
C851        C858   1.408       .  A
C854        C855   1.401       .  A
C854        F859   1.358       .  S
C855        C856   1.405       .  A
C855        F861   1.358       .  S
C856        C857   1.405       .  A
C857        C858   1.400       .  A
C857        F860   1.358   1_565  S
C858        F862   1.358       .  S
C865        C866   1.409       .  A
C865        C870   1.400       .  A
C865        F883   1.358       .  S
C866        C871   1.481       .  S
C866        C867   1.406       .  A
C867        C868   1.394       .  A
C867        F872   1.358       .  S
C868        C869   1.401       .  A
C868        F884   1.358       .  S
C869        C870   1.402       .  A
C870        F873   1.358       .  S
C871        C874   1.407       .  A
C871        C878   1.403       .  A
C874        C875   1.401       .  A
C874        F879   1.358       .  S
C875        C876   1.406       .  A
C875        F881   1.356       .  S
C876        C877   1.408       .  A
C877        C878   1.394       .  A
C877        F880   1.358       .  S
C878        F882   1.358       .  S
C885        C886   1.408       .  A
C885        C890   1.405       .  A
C885        F903   1.358       .  S
C886        C891   1.493       .  S
C886        C887   1.405       .  A
C887        C888   1.402       .  A
C887        F892   1.358       .  S
C888        C889   1.412       .  A
C888        F904   1.358       .  S
C889        C890   1.412       .  A
C890        F893   1.358       .  S
C891        C894   1.410       .  A
C891        C898   1.406       .  A
C894        C895   1.404       .  A
C894        F899   1.358       .  S
C895        C896   1.405       .  A
C895        F901   1.357       .  S
C896        C897   1.406       .  A
C897        C898   1.401       .  A
C897        F900   1.355       .  S
C898        F902   1.358       .  S
C905        C906   1.404       .  A
C905        C910   1.396       .  A
C905        F923   1.358       .  S
C906        C911   1.469       .  S
C906        C907   1.402       .  A
C907        C908   1.395       .  A
C907        F912   1.358       .  S
C908        C909   1.405       .  A
C908        F924   1.358       .  S
C909        C910   1.404       .  A
C910        F913   1.357       .  S
C911        C914   1.405       .  A
C911        C918   1.400       .  A
C914        C915   1.398       .  A
C914        F919   1.358       .  S
C915        C916   1.405       .  A
C915        F921   1.357       .  S
C916        C917   1.407       .  A
C917        C918   1.393       .  A
C917        F920   1.358       .  S
C918        F922   1.358       .  S
C925        C926   1.403       .  A
C925        C930   1.398       .  A
C925        F943   1.358       .  S
C926        C931   1.477       .  S
C926        C927   1.403       .  A
C927        C928   1.395       .  A
C927        F932   1.358       .  S
C928        C929   1.412       .  A
C928        F944   1.358       .  S
C929        C930   1.412       .  A
C930        F933   1.358       .  S
C931        C934   1.405       .  A
C931        C938   1.407       .  A
C934        C935   1.393       .  A
C934        F939   1.358       .  S
C935        C936   1.403       .  A
C935        F941   1.358       .  S
C936        C937   1.403       .  A
C937        C938   1.400       .  A
C937        F940   1.358       .  S
C938        F942   1.358       .  S
C945        C946   1.405       .  A
C945        C950   1.401       .  A
C945        F963   1.358       .  S
C946        C951   1.484       .  S
C946        C947   1.405       .  A
C947        C948   1.403       .  A
C947        F952   1.358       .  S
C948        C949   1.407       .  A
C948        F964   1.357       .  S
C949        C950   1.405       .  A
C950        F953   1.357       .  S
C951        C954   1.402       .  A
C951        C958   1.403       .  A
C954        C955   1.402       .  A
C954        F959   1.358       .  S
C955        C956   1.416       .  A
C955        F961   1.358       .  S
C956        C957   1.412       .  A
C957        C958   1.403       .  A
C957        F960   1.357       .  S
C958        F962   1.358       .  S
C965        C966   1.407       .  A
C965        C970   1.402       .  A
C965        F983   1.358       .  S
C966        C971   1.479       .  S
C966        C967   1.404       .  A
C967        C968   1.394       .  A
C967        F972   1.358       .  S
C968        C969   1.403       .  A
C968        F984   1.358       .  S
C969        C970   1.404       .  A
C970        F973   1.358       .  S
C971        C974   1.405       .  A
C971        C978   1.403       .  A
C974        C975   1.394       .  A
C974        F979   1.359       .  S
C975        C976   1.406       .  A
C975        F981   1.358       .  S
C976        C977   1.410       .  A
C977        C978   1.403       .  A
C977        F980   1.357       .  S
C978        F982   1.358       .  S
C985        C986   1.404       .  A
C985        C990   1.395       .  A
C985       F1003   1.358       .  S
C986        C991   1.481       .  S
C986        C987   1.408       .  A
C987        C988   1.402       .  A
C987        F992   1.358       .  S
C988        C989   1.404       .  A
C988       F1004   1.358       .  S
C989        C990   1.404       .  A
C990        F993   1.358       .  S
C991        C994   1.405       .  A
C991        C998   1.402       .  A
C994        C995   1.404       .  A
C994        F999   1.358       .  S
C995        C996   1.412       .  A
C995       F1001   1.357       .  S
C996        C997   1.413       .  A
C997        C998   1.394       .  A
C997       F1000   1.358       .  S
C998       F1002   1.359       .  S
C1005      C1006   1.405       .  A
C1005      C1010   1.399       .  A
C1005      F1023   1.358       .  S
C1006      C1011   1.482       .  S
C1006      C1007   1.405       .  A
C1007      C1008   1.403       .  A
C1007      F1012   1.358       .  S
C1008      C1009   1.407       .  A
C1008      F1024   1.357       .  S
C1009      C1010   1.405       .  A
C1010      F1013   1.357       .  S
C1011      C1014   1.403       .  A
C1011      C1018   1.404       .  A
C1014      C1015   1.402       .  A
C1014      F1019   1.358       .  S
C1015      C1016   1.413       .  A
C1015      F1021   1.358       .  S
C1016      C1017   1.409       .  A
C1017      C1018   1.400       .  A
C1017      F1020   1.358       .  S
C1018      F1022   1.358       .  S
