geometry optimzed in LAMMPS
_audit_creation_date              2020-12-01 
_audit_creation_method            'lammps2cif' 
_symmetry_space_group_name_H-M    'P1' 
_symmetry_Int_Tables_number       1 
_symmetry_cell_setting            triclinic 
loop_ 
_symmetry_equiv_pos_as_xyz 
  x,y,z 
_cell_length_a                    29.01957242 
_cell_length_b                    29.017617706314308 
_cell_length_c                    29.017257428256325 
_cell_angle_alpha                 90.01372065505387 
_cell_angle_beta                  90.0069956426502 
_cell_angle_gamma                 89.99676283860933 
loop_ 
_atom_site_label 
_atom_site_type_symbol 
_atom_site_fract_x 
_atom_site_fract_y 
_atom_site_fract_z 
_atom_site_charge 
O1          O  0.15739721  0.87425168  0.53264598    -0.83100
O2          O  0.09368852  0.81228081  0.50042140    -0.80100
C3          C  0.07535323  0.77456999  0.48989207     1.00400
O4          O  0.08519540  0.73779753  0.51177946    -0.80200
O5          O  0.17330835  0.71877243  0.48135530    -0.82800
C6          C  0.21656518  0.71964175  0.47817510     1.04900
O7          O  0.24043006  0.74497952  0.50488714    -0.75600
O8          O  0.21438425  0.83708698  0.49946208    -0.75700
C9          C  0.19002247  0.87261918  0.50349882     1.04900
O10         O  0.14380211  0.83351058  0.62309880    -0.83100
O11         O  0.07553913  0.77970310  0.59356438    -0.80100
C12         C  0.08660748  0.74524794  0.61811432     1.00400
O13         O  0.11900914  0.71930804  0.60577506    -0.80200
O14         O  0.20393607  0.69319413  0.57046501    -0.82800
C15         C  0.23404029  0.71179421  0.59601466     1.04900
O16         O  0.23297555  0.75401794  0.60369213    -0.75600
O17         O  0.21474734  0.84427791  0.59964838    -0.75700
C18         C  0.18434618  0.84531033  0.63112421     1.04800
Cr19       Cr  0.12053883  0.82214963  0.56132901     1.93700
Cr20       Cr  0.14583877  0.72133402  0.54324474     1.93200
Cr21       Cr  0.22155634  0.79433823  0.55141726     1.39100
O22         O  0.16271618  0.77937982  0.55105749    -1.20800
O23         O  0.36155038  0.87496559  0.77715558    -0.83100
O24         O  0.27129518  0.87093834  0.75890807    -0.80100
C25         C  0.22907672  0.87862111  0.75783937     1.00400
O26         O  0.21048442  0.90418043  0.78793994    -0.80200
O27         O  0.23656779  0.86886595  0.87287012    -0.82800
C28         C  0.26249557  0.85652274  0.90527908     1.04900
O29         O  0.29695712  0.88106290  0.91635928    -0.75600
O30         O  0.35076822  0.85151752  0.84810220    -0.75700
C31         C  0.36257259  0.84349102  0.80755612     1.04900
O32         O  0.35439203  0.97515067  0.77752979    -0.83100
O33         O  0.26229980  0.96974196  0.75146184    -0.80100
C34         C  0.23697322  0.99646128  0.77532551     1.00400
O35         O  0.23609505  0.99328265  0.81858508    -0.80200
O36         O  0.25508385  0.96285350  0.90670322    -0.82800
C37         C  0.29185705  0.98474199  0.91655141     1.04900
O38         O  0.32956747  0.97419928  0.89823122    -0.75600
O39         O  0.39153539  0.94196511  0.83452719    -0.75700
C40         C  0.38991775  0.97110997  0.80189938     1.04800
Cr41       Cr  0.31163180  0.92320397  0.77034229     1.93700
Cr42       Cr  0.23862372  0.93139377  0.84604875     1.93200
Cr43       Cr  0.33942158  0.91328970  0.87137302     1.39100
O44         O  0.29666544  0.92356711  0.82918347    -1.20800
O45         O  0.39223151  0.69745965  0.63032188    -0.83100
O46         O  0.38820684  0.71571684  0.72058324    -0.80100
C47         C  0.39588174  0.71678249  0.76280738     1.00400
O48         O  0.42142891  0.68667974  0.78140206    -0.80200
O49         O  0.38610065  0.60175069  0.75530442    -0.82800
C50         C  0.37375266  0.56934174  0.72937048     1.04900
O51         O  0.39829200  0.55825888  0.69490874    -0.75600
O52         O  0.36877017  0.62651417  0.64109394    -0.75700
C53         C  0.36075139  0.66706085  0.62929650     1.04900
O54         O  0.49241201  0.69707831  0.63749239    -0.83100
O55         O  0.48700538  0.72315015  0.72959708    -0.80100
C56         C  0.51371293  0.69928201  0.75492652     1.00400
O57         O  0.51052050  0.65602434  0.75579855    -0.80200
O58         O  0.48007517  0.56791189  0.73679986    -0.82800
C59         C  0.50196680  0.55806200  0.70002780     1.04900
O60         O  0.49143213  0.57638067  0.66231338    -0.75600
O61         O  0.45921641  0.64008339  0.60033690    -0.75700
C62         C  0.48836498  0.67271083  0.60195974     1.04800
Cr63       Cr  0.44046812  0.70427238  0.68025073     1.93700
Cr64       Cr  0.44862989  0.62856811  0.75325981     1.93200
Cr65       Cr  0.43053202  0.60324123  0.65244922     1.39100
O66         O  0.44081375  0.64543195  0.69521371    -1.20800
O67         O  0.86150271  0.59056377  0.20655966    -0.83100
O68         O  0.77124920  0.59458923  0.22479510    -0.80100
C69         C  0.72903243  0.58690366  0.22586243     1.00400
O70         O  0.71044233  0.56133408  0.19576626    -0.80200
O71         O  0.73652786  0.59661998  0.11082488    -0.82800
C72         C  0.76245968  0.60895149  0.07842092     1.04900
O73         O  0.79690869  0.58439070  0.06734707    -0.75600
O74         O  0.85071883  0.61397361  0.13559678    -0.75700
C75         C  0.86252465  0.62202102  0.17614084     1.04900
O76         O  0.85437050  0.49037592  0.20622788    -0.83100
O77         O  0.76227522  0.49578482  0.23227684    -0.80100
C78         C  0.73694498  0.46905625  0.20842196     1.00400
O79         O  0.73605752  0.47222097  0.16516015    -0.80200
O80         O  0.75504573  0.50261732  0.07702944    -0.82800
C81         C  0.79182063  0.48073102  0.06719389     1.04900
O82         O  0.82952962  0.49126830  0.08552435    -0.75600
O83         O  0.89149961  0.52353930  0.14922077    -0.75700
C84         C  0.88988967  0.49441162  0.18185963     1.04800
Cr85       Cr  0.81159618  0.54232149  0.21338629     1.93700
Cr86       Cr  0.73858352  0.53410020  0.13767058     1.93200
Cr87       Cr  0.83937810  0.55219031  0.11235504     1.39100
O88         O  0.79662607  0.54193143  0.15454289    -1.20800
O89         O  0.71473853  0.62123463  0.38405693    -0.83100
O90         O  0.73299158  0.71148639  0.38001146    -0.80100
C91         C  0.73405001  0.75371364  0.38767312     1.00400
O92         O  0.70395147  0.77232008  0.41322158    -0.80200
O93         O  0.61899812  0.74621348  0.37794307    -0.82800
C94         C  0.58658942  0.72027595  0.36561637     1.04900
O95         O  0.57553099  0.68583064  0.39017962    -0.75600
O96         O  0.64378512  0.63202149  0.36061719    -0.75700
C97         C  0.68432579  0.62021632  0.35258302     1.04900
O98         O  0.71441474  0.62842167  0.48425011    -0.83100
O99         O  0.74047729  0.72053566  0.47881260    -0.80100
C100        C  0.71662530  0.74589104  0.50551940     1.00400
O101        O  0.67336693  0.74676082  0.50234695    -0.80200
O102        O  0.58523863  0.72773529  0.47195605    -0.82800
C103        C  0.57540057  0.69096211  0.49384122     1.04900
O104        O  0.59373611  0.65325014  0.48331255    -0.75600
O105        O  0.65742086  0.59126918  0.45105991    -0.75700
C106        C  0.69005015  0.59289342  0.48020846     1.04800
Cr107      Cr  0.72157701  0.67117218  0.43229049     1.93700
Cr108      Cr  0.64586530  0.74419187  0.44046644     1.93200
Cr109      Cr  0.62055214  0.64338019  0.42239541     1.39100
O110        O  0.66273760  0.68614352  0.43265608    -1.20800
O111        O  0.89222771  0.76806359  0.35333872    -0.83100
O112        O  0.88820757  0.74978943  0.26308210    -0.80100
C113        C  0.89587212  0.74872506  0.22085793     1.00400
O114        O  0.92141889  0.77882239  0.20226426    -0.80200
O115        O  0.88609323  0.86375960  0.22834547    -0.82800
C116        C  0.87375023  0.89617111  0.25427638     1.04900
O117        O  0.89829640  0.90725830  0.28873456    -0.75600
O118        O  0.86875773  0.83900661  0.34254474    -0.75700
C119        C  0.86074205  0.79846149  0.35434851     1.04900
O120        O  0.99241191  0.76844206  0.34619387    -0.83100
O121        O  0.98700454  0.74235198  0.25409093    -0.80100
C122        C  0.01370914  0.76621501  0.22876029     1.00400
O123        O  0.01051187  0.80947267  0.22788138    -0.80200
O124        O  0.98007061  0.89758803  0.24686416    -0.82800
C125        C  0.00196233  0.90743840  0.28363902     1.04900
O126        O  0.99142893  0.88912721  0.32135482    -0.75600
O127        O  0.95919997  0.82543591  0.38333261    -0.75700
C128        C  0.98835282  0.79280904  0.38172474     1.04800
Cr129      Cr  0.94046798  0.76124053  0.30342359     1.93700
Cr130      Cr  0.94862244  0.83693429  0.23040439     1.93200
Cr131      Cr  0.93052492  0.86227487  0.33120682     1.39100
O132        O  0.94080873  0.82007826  0.28845075    -1.20800
O133        O  0.60787014  0.19746976  0.85338312    -0.83100
O134        O  0.61190706  0.21572401  0.76313204    -0.80100
C135        C  0.60423981  0.21678632  0.72090683     1.00400
O136        O  0.57868112  0.18669075  0.70230281    -0.80200
O137        O  0.61393710  0.10172428  0.72840303    -0.82800
C138        C  0.62625504  0.06931567  0.75434002     1.04900
O139        O  0.60168025  0.05825424  0.78877664    -0.75600
O140        O  0.63126461  0.12649500  0.84259870    -0.75700
C141        C  0.63932230  0.16703697  0.85439914     1.04900
O142        O  0.50768290  0.19718066  0.84622534    -0.83100
O143        O  0.51311100  0.22323295  0.75411197    -0.80100
C144        C  0.48639641  0.19938566  0.72875753     1.00400
O145        O  0.48955694  0.15612341  0.72787627    -0.80200
O146        O  0.51992324  0.06798091  0.74688270    -0.82800
C147        C  0.49803385  0.05814817  0.78365567     1.04900
O148        O  0.50856108  0.07648778  0.82136925    -0.75600
O149        O  0.54084052  0.14016584  0.88336136    -0.75700
C150        C  0.51171393  0.17281402  0.88175081     1.04800
Cr151      Cr  0.55963350  0.20432252  0.80346048     1.93700
Cr152      Cr  0.55142543  0.12860561  0.73043167     1.93200
Cr153      Cr  0.56948352  0.10328558  0.83123931     1.39100
O154        O  0.55924262  0.14547818  0.78848258    -1.20800
O155        O  0.84270820  0.37415509  0.95106172    -0.83100
O156        O  0.90639981  0.31217753  0.98330953    -0.80100
C157        C  0.92473065  0.27446542  0.99383120     1.00400
O158        O  0.91489244  0.23768994  0.97193367    -0.80200
O159        O  0.82677418  0.21869243  0.00234584    -0.82800
C160        C  0.78351704  0.21958555  0.00552774     1.04900
O161        O  0.75966068  0.24491928  0.97881224    -0.75600
O162        O  0.78571382  0.33702050  0.98423954    -0.75700
C163        C  0.81007589  0.37254570  0.98019792     1.04900
O164        O  0.85631699  0.33337696  0.86061505    -0.83100
O165        O  0.92456651  0.27956572  0.89017890    -0.80100
C166        C  0.91348813  0.24512245  0.86560476     1.00400
O167        O  0.88108661  0.21918520  0.87793110    -0.80200
O168        O  0.79615333  0.19309100  0.91323338    -0.82800
C169        C  0.76605787  0.21168882  0.88767886     1.04900
O170        O  0.76713154  0.25390857  0.88000513    -0.75600
O171        O  0.78536644  0.34416503  0.88405214    -0.75700
C172        C  0.81577633  0.34519140  0.85258429     1.04800
Cr173      Cr  0.87956585  0.32203283  0.92239399     1.93700
Cr174      Cr  0.85425141  0.22122949  0.94045969     1.93200
Cr175      Cr  0.77854536  0.29424910  0.93228322     1.39100
O176        O  0.83738202  0.27927697  0.93265289    -1.20800
O177        O  0.60858080  0.44194146  0.64921319    -0.83100
O178        O  0.67055633  0.47419874  0.58553653    -0.80100
C179        C  0.70826911  0.48474030  0.56722649     1.00400
O180        O  0.74504583  0.46286247  0.57707791    -0.80200
O181        O  0.76402216  0.49328578  0.66520609    -0.82800
C182        C  0.76314656  0.49647293  0.70846541     1.04900
O183        O  0.73780148  0.46977269  0.73231877    -0.75600
O184        O  0.64570113  0.47518082  0.70620573    -0.75700
C185        C  0.61017576  0.47110716  0.68183677     1.04900
O186        O  0.64938932  0.35150681  0.63562453    -0.83100
O187        O  0.70319322  0.38107341  0.56737136    -0.80100
C188        C  0.73764870  0.35652828  0.57844917     1.00400
O189        O  0.76356927  0.36886902  0.61086862    -0.80200
O190        O  0.78962836  0.40417679  0.69582494    -0.82800
C191        C  0.77103168  0.37862718  0.72591927     1.04900
O192        O  0.72880713  0.37097501  0.72486677    -0.75600
O193        O  0.63856468  0.37498311  0.70656776    -0.75700
C194        C  0.63757317  0.34349047  0.67616719     1.04800
Cr195      Cr  0.66071459  0.41328436  0.61237009     1.93700
Cr196      Cr  0.76150133  0.43139757  0.63772112     1.93200
Cr197      Cr  0.68847132  0.42323527  0.71341023     1.39100
O198        O  0.70345818  0.42357496  0.65457283    -1.20800
O199        O  0.28535654  0.12133786  0.09964609    -0.83100
O200        O  0.26708732  0.21158735  0.10368687    -0.80100
C201        C  0.26602203  0.25381159  0.09603272     1.00400
O202        O  0.29611686  0.27241398  0.07048912    -0.80200
O203        O  0.38105897  0.24633390  0.10580054    -0.82800
C204        C  0.41346872  0.22040278  0.11812938     1.04900
O205        O  0.42454848  0.18595674  0.09356344    -0.75600
O206        O  0.35629643  0.13214850  0.12311794    -0.75700
C207        C  0.31575607  0.12033028  0.13113271     1.04900
O208        O  0.28571908  0.12848688  0.99945380    -0.83100
O209        O  0.25963246  0.22058999  0.00488402    -0.80100
C210        C  0.28348783  0.24593320  0.97818388     1.00400
O211        O  0.32674392  0.24682023  0.98137746    -0.80200
O212        O  0.41486096  0.22782892  0.01180150    -0.82800
C213        C  0.42470878  0.19105262  0.98990688     1.04900
O214        O  0.40638713  0.15333830  0.00043057    -0.75600
O215        O  0.34270532  0.09135637  0.03267054    -0.75700
C216        C  0.31008051  0.09295735  0.00351399     1.04800
Cr217      Cr  0.27852669  0.17125455  0.05141136     1.93700
Cr218      Cr  0.35421920  0.24428441  0.04326755     1.93200
Cr219      Cr  0.37955181  0.14348500  0.06134196     1.39100
O220        O  0.33736036  0.18623629  0.05106809    -1.20800
O221        O  0.10786709  0.26805322  0.13040468    -0.83100
O222        O  0.11189693  0.24980972  0.22065911    -0.80100
C223        C  0.10422132  0.24874146  0.26288017     1.00400
O224        O  0.07865868  0.27883593  0.28147721    -0.80200
O225        O  0.11393388  0.36378852  0.25538379    -0.82800
C226        C  0.12625633  0.39619107  0.22944604     1.04900
O227        O  0.10167739  0.40726541  0.19501045    -0.75600
O228        O  0.13126273  0.33902606  0.14118925    -0.75700
C229        C  0.13931737  0.29848363  0.12938421     1.04900
O230        O  0.00768252  0.26835914  0.13753360    -0.83100
O231        O  0.01309718  0.24231327  0.22964121    -0.80100
C232        C  0.98637754  0.26616398  0.25498261     1.00400
O233        O  0.98954471  0.30942560  0.25587519    -0.80200
O234        O  0.01992885  0.39756151  0.23688467    -0.82800
C235        C  0.99803778  0.40739327  0.20011031     1.04900
O236        O  0.00856061  0.38905687  0.16239667    -0.75600
O237        O  0.04083862  0.32537276  0.10040846    -0.75700
C238        C  0.01171810  0.29272407  0.10201075     1.04800
Cr239      Cr  0.05962768  0.26121268  0.18031318     1.93700
Cr240      Cr  0.05141803  0.33692768  0.25334031     1.93200
Cr241      Cr  0.06948175  0.36224645  0.15253773     1.39100
O242        O  0.05923648  0.32005575  0.19529044    -1.20800
O243        O  0.13853841  0.09054563  0.27714997    -0.83100
O244        O  0.22877763  0.09457017  0.25885850    -0.80100
C245        C  0.27100275  0.08691745  0.25780402     1.00400
O246        O  0.28960709  0.06136210  0.28789543    -0.80200
O247        O  0.26353943  0.09662771  0.37286976    -0.82800
C248        C  0.23761699  0.10895217  0.40529019     1.04900
O249        O  0.20317364  0.08438890  0.41635405    -0.75600
O250        O  0.14935908  0.11398004  0.34811048    -0.75700
C251        C  0.13754179  0.12201901  0.30757065     1.04900
O252        O  0.14568669  0.99034701  0.27745935    -0.83100
O253        O  0.23779175  0.99577297  0.25136206    -0.80100
C254        C  0.26315137  0.96906765  0.27520458     1.00400
O255        O  0.26403062  0.97223403  0.31846644    -0.80200
O256        O  0.24504261  0.00261211  0.40661130    -0.82800
C257        C  0.20826790  0.98073189  0.41645340     1.04900
O258        O  0.17055533  0.99127000  0.39813067    -0.75600
O259        O  0.10856842  0.02355223  0.33446628    -0.75700
C260        C  0.11016676  0.99440257  0.30183091     1.04800
Cr261      Cr  0.18845165  0.04229948  0.27028707     1.93700
Cr262      Cr  0.26148983  0.03410964  0.34598480     1.93200
Cr263      Cr  0.16070023  0.05219466  0.37133017     1.39100
O264        O  0.20344322  0.04193126  0.32912720    -1.20800
O265        O  0.00866199  0.07638998  0.66235979    -0.83100
O266        O  0.04089102  0.14008143  0.60038224    -0.80100
C267        C  0.01173839  0.17270828  0.60199017     1.00400
O268        O  0.00767929  0.19707534  0.63752105    -0.80200
O269        O  0.01308663  0.22316510  0.72962416    -0.82800
C270        C  0.98638187  0.19930216  0.75495465     1.04900
O271        O  0.98957889  0.15604449  0.75583346    -0.75600
O272        O  0.02002006  0.06792916  0.73685045    -0.75700
C273        C  0.99812847  0.05807896  0.70007553     1.04900
O274        O  0.10179445  0.05825881  0.69498014    -0.83100
O275        O  0.13133323  0.12651050  0.64117005    -0.80100
C276        C  0.13934896  0.16705580  0.62936644     1.00400
O277        O  0.10786342  0.19745359  0.63037631    -0.80200
O278        O  0.11188350  0.21572744  0.72063310    -0.82800
C279        C  0.10421888  0.21679182  0.76285738     1.04900
O280        O  0.07867196  0.18669459  0.78145084    -0.75600
O281        O  0.11399749  0.10175724  0.75536944    -0.75700
C282        C  0.12634057  0.06934593  0.72943845     1.04800
Cr283      Cr  0.06956602  0.10324239  0.65250797     1.93700
Cr284      Cr  0.05962314  0.20427662  0.68029143     1.93200
Cr285      Cr  0.05146834  0.12858276  0.75331043     1.39100
O286        O  0.05928218  0.14543890  0.69526410    -1.20800
O287        O  0.17056099  0.47424952  0.89819004    -0.83100
O288        O  0.10859099  0.44197814  0.83449397    -0.80100
C289        C  0.11020095  0.47110563  0.80185497     1.00400
O290        O  0.14571988  0.47514116  0.77748657    -0.80200
O291        O  0.23781505  0.46973250  0.75143736    -0.82800
C292        C  0.26314525  0.49646118  0.77529204     1.04900
O293        O  0.26403269  0.49329676  0.81855395    -0.75600
O294        O  0.24504488  0.46290063  0.90668494    -0.75700
C295        C  0.20826988  0.48478687  0.91652045     1.04900
O296        O  0.20318224  0.38112720  0.91636745    -0.83100
O297        O  0.14937185  0.35154385  0.84811822    -0.80100
C298        C  0.13756599  0.34349617  0.80757427     1.00400
O299        O  0.13858792  0.37495328  0.77715519    -0.80200
O300        O  0.22884137  0.37092798  0.75891974    -0.82800
C301        C  0.27105808  0.37861369  0.75785201     1.04900
O302        O  0.28964823  0.40418367  0.78794801    -0.75600
O303        O  0.26356300  0.36889800  0.87288952    -0.75700
C304        C  0.23763143  0.35656648  0.90529357     1.04800
Cr305      Cr  0.16071265  0.41332731  0.87135956     1.93700
Cr306      Cr  0.18849428  0.42319566  0.77032822     1.93200
Cr307      Cr  0.26150708  0.43141764  0.84604372     1.39100
O308        O  0.20346457  0.42358598  0.82917155    -1.20800
O309        O  0.40635467  0.31226731  0.50040218    -0.83100
O310        O  0.34266974  0.37424830  0.53265462    -0.80100
C311        C  0.31004064  0.37262403  0.50350615     1.00400
O312        O  0.28567609  0.33709575  0.49946415    -0.80200
O313        O  0.25961371  0.24498163  0.50490174    -0.82800
C314        C  0.28346581  0.21962621  0.47819514     1.04900
O315        O  0.32672412  0.21875623  0.48136779    -0.75600
O316        O  0.41485230  0.23778224  0.51175899    -0.75700
C317        C  0.42469044  0.27455543  0.48987391     1.04900
O318        O  0.42455975  0.27968693  0.59353529    -0.83100
O319        O  0.35630530  0.33349590  0.62309741    -0.80100
C320        C  0.31576464  0.34530112  0.63113149     1.00400
O321        O  0.28535192  0.34428274  0.59965742    -0.80200
O322        O  0.26709885  0.25403105  0.60370287    -0.82800
C323        C  0.26604077  0.21180373  0.59604148     1.04900
O324        O  0.29613950  0.19319730  0.57049328    -0.75600
O325        O  0.38109254  0.21930424  0.60577201    -0.75700
C326        C  0.41350130  0.24524178  0.61809849     1.04800
Cr327      Cr  0.37953855  0.32213727  0.56131928     1.93700
Cr328      Cr  0.27851366  0.29434520  0.55142387     1.93200
Cr329      Cr  0.35422558  0.22132560  0.54324845     1.39100
O330        O  0.33735313  0.27937392  0.55105852    -1.20800
O331        O  0.67052386  0.99131828  0.08548347    -0.83100
O332        O  0.60855590  0.02355235  0.14918756    -0.72900
C333        C  0.61017355  0.99440766  0.18181530     1.00400
O334        O  0.64569927  0.99036679  0.20618493    -0.80200
O335        O  0.73779157  0.99577548  0.23225285    -0.82800
C336        C  0.76311807  0.96905610  0.20838902     1.04900
O337        O  0.76399627  0.97223489  0.16512952    -0.75600
O338        O  0.74500739  0.00266416  0.07701136    -0.75700
C339        C  0.70823425  0.98077572  0.06716331     1.04900
O340        O  0.70313417  0.08445466  0.06735551    -0.83100
O341        O  0.64932308  0.11400002  0.13561274    -0.80100
C342        C  0.63751860  0.12202636  0.17615870     1.00400
O343        O  0.63854098  0.09055187  0.20655933    -0.80200
O344        O  0.72879618  0.09457899  0.22480689    -0.82800
C345        C  0.77101471  0.08689639  0.22587534     1.04900
O346        O  0.78960692  0.06133701  0.19577484    -0.75600
O347        O  0.76352346  0.09665164  0.11084463    -0.75700
C348        C  0.73759561  0.10899502  0.07843574     1.04800
Cr349      Cr  0.66066978  0.05222789  0.11234181     1.93700
Cr350      Cr  0.68845955  0.04231342  0.21337252     1.93200
Cr351      Cr  0.76146758  0.03412378  0.13766596     1.39100
O352        O  0.70342589  0.04195031  0.15453135    -1.20800
O353        O  0.90640281  0.15323723  0.48329332    -0.83100
O354        O  0.84269419  0.09126639  0.45106853    -0.80100
C355        C  0.81006892  0.09289884  0.48021563     1.00400
O356        O  0.78570698  0.12843101  0.48425218    -0.80200
O357        O  0.75966141  0.22053852  0.47882730    -0.82800
C358        C  0.78352616  0.24587635  0.50553952     1.04900
O359        O  0.82678305  0.24674563  0.50235929    -0.75600
O360        O  0.91489610  0.22772048  0.47193526    -0.75700
C361        C  0.92473816  0.19094802  0.49382259     1.04900
O362        O  0.92455244  0.18581503  0.39015041    -0.83100
O363        O  0.85628949  0.13200759  0.36061589    -0.80100
C364        C  0.81574534  0.12020776  0.35259033     1.00400
O365        O  0.78534421  0.12124024  0.38406604    -0.80200
O366        O  0.76711606  0.21150023  0.38002224    -0.82800
C367        C  0.76605124  0.25372384  0.38769997     1.04900
O368        O  0.79615535  0.27232395  0.41324958    -0.75600
O369        O  0.88108241  0.24621005  0.37793966    -0.75700
C370        C  0.91348403  0.22027016  0.36560049     1.04800
Cr371      Cr  0.87955262  0.14336846  0.42238568     1.93700
Cr372      Cr  0.77853519  0.17117987  0.43229711     1.93200
Cr373      Cr  0.85425271  0.24418406  0.44046991     1.39100
O374        O  0.83737534  0.18613826  0.43265710    -1.20800
O375        O  0.50865867  0.38913665  0.32140182    -0.83100
O376        O  0.54087463  0.32543397  0.38337825    -0.80100
C377        C  0.51172620  0.29280653  0.38175545     1.00400
O378        O  0.50767921  0.26843877  0.34622299    -0.80200
O379        O  0.51308543  0.24236676  0.25411833    -0.82800
C380        C  0.48637758  0.26623496  0.22878889     1.04900
O381        O  0.48956987  0.30949252  0.22791718    -0.75600
O382        O  0.52001520  0.39760506  0.24691523    -0.75700
C383        C  0.49812379  0.40745511  0.28368739     1.04900
O384        O  0.60179863  0.40725835  0.28880590    -0.83100
O385        O  0.63132077  0.33900321  0.34262090    -0.80100
C386        C  0.63933957  0.29845666  0.35441831     1.00400
O387        O  0.60785962  0.26805775  0.35339326    -0.80200
O388        O  0.61188406  0.24980043  0.26313181    -0.82800
C389        C  0.60420886  0.24873468  0.22090776     1.04900
O390        O  0.57866139  0.27883714  0.20231313    -0.75600
O391        O  0.61398966  0.36376631  0.22841031    -0.75700
C392        C  0.62633768  0.39617542  0.25434392     1.04800
Cr393      Cr  0.56955880  0.36227606  0.33126571     1.93700
Cr394      Cr  0.55962290  0.26124473  0.30346451     1.93200
Cr395      Cr  0.55146049  0.33694881  0.23045538     1.39100
O396        O  0.55927698  0.32008511  0.28850145    -1.20800
O397        O  0.09369116  0.65334036  0.00040517    -0.83100
O398        O  0.15738272  0.59136251  0.03265271    -0.80100
C399        C  0.19001500  0.59297205  0.00351653     1.00400
O400        O  0.21437709  0.62849720  0.99947508    -0.80200
O401        O  0.24043022  0.72059848  0.00490247    -0.82800
C402        C  0.21657386  0.74593234  0.97818721     1.04900
O403        O  0.17331676  0.74682553  0.98136912    -0.75600
O404        O  0.08519856  0.72782790  0.01178143    -0.75700
C405        C  0.07536033  0.69105252  0.98988362     1.04900
O406        O  0.07552453  0.68595182  0.09353590    -0.83100
O407        O  0.14377400  0.63214035  0.12309958    -0.80100
C408        C  0.18431469  0.62032622  0.13113026     1.00400
O409        O  0.21472454  0.62135252  0.09966249    -0.80200
O410        O  0.23295948  0.71160894  0.10370964    -0.82800
C411        C  0.23403316  0.75382873  0.09603620     1.04900
O412        O  0.20393781  0.77242669  0.07048159    -0.75600
O413        O  0.11900454  0.74633225  0.10578395    -0.75700
C414        C  0.08660306  0.72039499  0.11811027     1.04800
Cr415      Cr  0.12052512  0.64348477  0.06132065     1.93700
Cr416      Cr  0.22154553  0.67126855  0.05143147     1.93200
Cr417      Cr  0.14583964  0.74428832  0.04325533     1.39100
O418        O  0.16270891  0.68624076  0.05106197    -1.20800
O419        O  0.49152997  0.88903009  0.16234534    -0.83100
O420        O  0.45925075  0.82535192  0.10035324    -0.80100
C421        C  0.48837746  0.79270393  0.10196392     1.00400
O422        O  0.49240845  0.76833718  0.13748936    -0.80200
O423        O  0.48698010  0.74228478  0.22960267    -0.82800
C424        C  0.51369473  0.76613210  0.25495713     1.04900
O425        O  0.51053399  0.80939445  0.25583829    -0.75600
O426        O  0.48016777  0.89753690  0.23683193    -0.75700
C427        C  0.50205705  0.90736959  0.20005901     1.04900
O428        O  0.39841068  0.90726352  0.19493780    -0.83100
O429        O  0.36882651  0.83902258  0.14111577    -0.80100
C430        C  0.36076895  0.79848054  0.12931529     1.00400
O431        O  0.39222121  0.76804789  0.13033144    -0.80200
O432        O  0.38818417  0.74979354  0.22058248    -0.82800
C433        C  0.39585139  0.74873153  0.26280772     1.04900
O434        O  0.42140993  0.77882704  0.28141168    -0.75600
O435        O  0.38615386  0.86379346  0.25531144    -0.75700
C436        C  0.37383584  0.89620195  0.22937454     1.04800
Cr437      Cr  0.43060758  0.86223218  0.15247519     1.93700
Cr438      Cr  0.44045777  0.76119516  0.18025414     1.93200
Cr439      Cr  0.44866556  0.83691220  0.25328291     1.39100
O440        O  0.44084854  0.82003957  0.19523197    -1.20800
O441        O  0.32953458  0.49131896  0.39817842    -0.83100
O442        O  0.39151024  0.52357613  0.33450181    -0.80100
C443        C  0.38991517  0.49441030  0.30187818     1.00400
O444        O  0.35438992  0.49033684  0.27750924    -0.80200
O445        O  0.26228971  0.49574521  0.25139598    -0.82800
C446        C  0.23694468  0.46904518  0.27524931     1.04900
O447        O  0.23606909  0.47223209  0.31850871    -0.75600
O448        O  0.25504509  0.50265527  0.40663695    -0.75700
C449        C  0.29182161  0.48077742  0.41648816     1.04900
O450        O  0.29689781  0.58444437  0.41634354    -0.83100
O451        O  0.35070184  0.61401099  0.34809041    -0.80100
C452        C  0.36251800  0.62202717  0.30754797     1.00400
O453        O  0.36152659  0.59053458  0.27714729    -0.80200
O454        O  0.27128414  0.59454294  0.25884806    -0.82800
C455        C  0.22905954  0.58689061  0.25779563     1.04900
O456        O  0.21046287  0.56134106  0.28788978    -0.75600
O457        O  0.23652191  0.59664880  0.37284611    -0.75700
C458        C  0.26244241  0.60898945  0.40526560     1.04800
Cr459      Cr  0.33937639  0.55223334  0.37134482     1.93700
Cr460      Cr  0.31161988  0.54228259  0.27030462     1.93200
Cr461      Cr  0.23858969  0.53412022  0.34599372     1.39100
O462        O  0.29663282  0.54194295  0.32914201    -1.20800
O463        O  0.59370411  0.81217968  0.98328408    -0.83100
O464        O  0.65738579  0.87416164  0.95104390    -0.80100
C465        C  0.69001066  0.87256061  0.98020019     1.00400
O466        O  0.71437232  0.83703131  0.98426034    -0.80200
O467        O  0.74045900  0.74492818  0.97883037    -0.82800
C468        C  0.71660357  0.71958500  0.00553070     1.04900
O469        O  0.67334760  0.71869799  0.00233717    -0.75600
O470        O  0.58523033  0.73768905  0.97191323    -0.75700
C471        C  0.57538268  0.77446553  0.99380804     1.04900
O472        O  0.57554249  0.77956088  0.89015132    -0.83100
O473        O  0.64379447  0.83336932  0.86059647    -0.80100
C474        C  0.68433480  0.84518762  0.85258146     1.00400
O475        O  0.71473443  0.84418007  0.88406804    -0.80200
O476        O  0.73300367  0.75393065  0.88002746    -0.82800
C477        C  0.73406912  0.71170651  0.88768171     1.04900
O478        O  0.70397444  0.69310403  0.91322551    -0.75600
O479        O  0.61903224  0.71918388  0.87791422    -0.75700
C480        C  0.58662235  0.74511490  0.86558550     1.04800
Cr481      Cr  0.62053928  0.82203289  0.92237249     1.93700
Cr482      Cr  0.72156445  0.79426350  0.93230290     1.93200
Cr483      Cr  0.64587209  0.72123351  0.94044716     1.39100
O484        O  0.66273080  0.77928163  0.93264633    -1.20800
O485        O  0.82953541  0.97424780  0.58558340    -0.83100
O486        O  0.89152225  0.94196534  0.64924779    -0.80100
C487        C  0.88992385  0.97111480  0.68188306     1.00400
O488        O  0.85440390  0.97517044  0.70625469    -0.80200
O489        O  0.76229882  0.96974440  0.73235182    -0.82800
C490        C  0.73693929  0.99644987  0.70850948     1.04900
O491        O  0.73606003  0.99328366  0.66524758    -0.75600
O492        O  0.75504812  0.96290576  0.57710260    -0.75700
C493        C  0.79182272  0.98478591  0.56726043     1.04900
O494        O  0.79691711  0.88112884  0.56735983    -0.83100
O495        O  0.85073147  0.85153758  0.63560342    -0.80100
C496        C  0.86254882  0.84349854  0.67614326     1.00400
O497        O  0.86155220  0.87497191  0.70656396    -0.80200
O498        O  0.77131295  0.87094732  0.72485532    -0.82800
C499        C  0.72908786  0.87860015  0.72590995     1.04900
O500        O  0.71048350  0.90415544  0.69581838    -0.75600
O501        O  0.73655116  0.86889005  0.61084395    -0.75700
C502        C  0.76247381  0.85656545  0.57842361     1.04800
Cr503      Cr  0.83939043  0.91332301  0.61238376     1.93700
Cr504      Cr  0.81163895  0.92321792  0.71342682     1.93200
Cr505      Cr  0.73860081  0.93140803  0.63772910     1.39100
O506        O  0.79664741  0.92358624  0.65458669    -1.20800
O507        O  0.99153037  0.57646133  0.82131819    -0.83100
O508        O  0.95925242  0.64014560  0.88330621    -0.80100
C509        C  0.98837305  0.67279414  0.88170398     1.00400
O510        O  0.99240881  0.69715899  0.84618094    -0.80200
O511        O  0.98699421  0.72320488  0.75407332    -0.82800
C512        C  0.01371373  0.69935411  0.72873192     1.04900
O513        O  0.01054633  0.65609238  0.72783930    -0.75600
O514        O  0.98016210  0.56795655  0.74683019    -0.75700
C515        C  0.00205302  0.55812488  0.78360476     1.04900
O516        O  0.89841360  0.55825288  0.78870436    -0.83100
O517        O  0.86882836  0.62649237  0.84252524    -0.80100
C518        C  0.86077385  0.66703470  0.85433038     1.00400
O519        O  0.89222419  0.69746516  0.85330990    -0.80200
O520        O  0.88819448  0.71570855  0.76305546    -0.82800
C521        C  0.89586986  0.71677665  0.72083432     1.04900
O522        O  0.92143248  0.68668208  0.70223732    -0.75600
O523        O  0.88615702  0.60172960  0.72833089    -0.75700
C524        C  0.87383449  0.56932711  0.75426861     1.04800
Cr525      Cr  0.93060924  0.60327183  0.83117701     1.93700
Cr526      Cr  0.94046368  0.70430559  0.80340140     1.93200
Cr527      Cr  0.94867298  0.62859038  0.73037432     1.39100
O528        O  0.94085463  0.64546247  0.78842419    -1.20800
C529        C  0.88331678  0.75797962  0.69735211    -0.11000
C530        C  0.87552561  0.79737798  0.68724500    -0.12600
C531        C  0.70559294  0.86601163  0.76709166    -0.11000
C532        C  0.69546153  0.85818852  0.80647649    -0.12600
C533        C  0.77526475  0.68822204  0.87512182    -0.11000
C534        C  0.81466161  0.67812528  0.86732117    -0.12600
C535        C  0.54213553  0.77490151  0.03050895    -0.11000
C536        C  0.51655301  0.78220495  0.06252864    -0.12600
C537        C  0.37549325  0.66814180  0.29641936    -0.11000
C538        C  0.38329015  0.70753368  0.28629353    -0.12600
C539        C  0.04211226  0.69061271  0.95317542    -0.11000
C540        C  0.01653811  0.68330035  0.92115099    -0.12600
C541        C  0.31464797  0.78739192  0.11634431    -0.11000
C542        C  0.27524390  0.77730327  0.10856981    -0.12600
C543        C  0.20555555  0.59947864  0.21661786    -0.11000
C544        C  0.19542934  0.60730942  0.17723204    -0.12600
C545        C  0.42936684  0.46625277  0.29140366    -0.11000
C546        C  0.46140835  0.44068713  0.28411438    -0.12600
C547        C  0.79958077  0.05347918  0.50840972    -0.11000
C548        C  0.79226670  0.02148019  0.53400603    -0.12600
C549        C  0.72484350  0.27720751  0.37517608    -0.11000
C550        C  0.68544695  0.28732416  0.36739832    -0.12600
C551        C  0.57074822  0.96622381  0.19229990    -0.11000
C552        C  0.53874657  0.94062820  0.19961723    -0.12600
C553        C  0.70779945  0.94405442  0.03392886    -0.11000
C554        C  0.70049762  0.91201249  0.00836213    -0.12600
C555        C  0.79450167  0.09943072  0.26708206    -0.11000
C556        C  0.80461814  0.10721709  0.30648094    -0.12600
C557        C  0.61674341  0.20753087  0.19741353    -0.11000
C558        C  0.62453038  0.16813455  0.18728954    -0.12600
C559        C  0.29955595  0.41205529  0.47531582    -0.11000
C560        C  0.29226099  0.44406915  0.44973306    -0.12600
C561        C  0.45794988  0.27500007  0.45318489    -0.11000
C562        C  0.48354405  0.28232012  0.42118297    -0.12600
C563        C  0.20782498  0.52150267  0.94976814    -0.11000
C564        C  0.20051216  0.55352582  0.97534268    -0.12600
C565        C  0.07076251  0.49928412  0.79135885    -0.11000
C566        C  0.03875448  0.52486744  0.78404654    -0.12600
C567        C  0.29454236  0.36607022  0.71664749    -0.11000
C568        C  0.30465301  0.35828327  0.67724818    -0.12600
C569        C  0.98357119  0.18319441  0.56254554    -0.11000
C570        C  0.95799089  0.19050733  0.53052420    -0.12600
C571        C  0.96140942  0.02484776  0.69964744    -0.11000
C572        C  0.92937227  0.99928220  0.69236396    -0.12600
C573        C  0.12457299  0.29738455  0.79646715    -0.11000
C574        C  0.11677313  0.25798805  0.78635388    -0.12600
C575        C  0.22484570  0.18831567  0.60859386    -0.11000
C576        C  0.18545586  0.17818943  0.61638765    -0.12600
C577        C  0.29746019  0.94051978  0.25321439    -0.11000
C578        C  0.33180418  0.92073785  0.24001949    -0.12600
C579        C  0.24828488  0.15097731  0.42983831    -0.11000
C580        C  0.26148732  0.18531591  0.44963331    -0.12600
C581        C  0.95780533  0.24417277  0.28925885    -0.11000
C582        C  0.93801614  0.23094705  0.32357954    -0.12600
C583        C  0.12456516  0.16813975  0.29646888    -0.11000
C584        C  0.11677413  0.20753809  0.28636210    -0.12600
C585        C  0.16829562  0.42070570  0.24008560    -0.11000
C586        C  0.20264380  0.44048465  0.25327132    -0.12600
C587        C  0.26150907  0.28021318  0.94960745    -0.11000
C588        C  0.24830039  0.31454285  0.92981657    -0.12600
C589        C  0.18542966  0.28739306  0.11639358    -0.11000
C590        C  0.22482649  0.27729617  0.10859284    -0.12600
C591        C  0.30462906  0.10732925  0.17723755    -0.11000
C592        C  0.29449761  0.09950602  0.21662230    -0.12600
C593        C  0.45779046  0.24426651  0.19449706    -0.11000
C594        C  0.43799574  0.23106833  0.16016400    -0.12600
C595        C  0.83179550  0.54481242  0.74362927    -0.11000
C596        C  0.79744719  0.52503334  0.73044333    -0.12600
C597        C  0.76155481  0.28017510  0.53411775    -0.11000
C598        C  0.74833876  0.31450366  0.55391103    -0.12600
C599        C  0.76153120  0.18532022  0.03411317    -0.11000
C600        C  0.74829473  0.15100820  0.05390665    -0.12600
C601        C  0.95797893  0.27490551  0.03053935    -0.11000
C602        C  0.98355294  0.28221786  0.06256366    -0.12600
C603        C  0.80466191  0.35820826  0.80648281    -0.11000
C604        C  0.79453572  0.36603929  0.76709672    -0.12600
C605        C  0.93800455  0.23446881  0.82357118    -0.11000
C606        C  0.95779751  0.22127386  0.78923565    -0.12600
C607        C  0.45783729  0.22137414  0.69445788    -0.11000
C608        C  0.43804628  0.23458185  0.66012429    -0.12600
C609        C  0.45795582  0.19061643  0.95320583    -0.11000
C610        C  0.48353831  0.18331304  0.92118613    -0.12600
C611        C  0.68544330  0.17812532  0.86737032    -0.11000
C612        C  0.72484728  0.18821401  0.87514492    -0.12600
C613        C  0.62459805  0.29737609  0.68729541    -0.11000
C614        C  0.61680088  0.25798400  0.69742119    -0.12600
C615        C  0.66828657  0.04477961  0.74369483    -0.11000
C616        C  0.70263058  0.02499783  0.73049983    -0.12600
C617        C  0.04229364  0.74424347  0.19447938    -0.11000
C618        C  0.06208665  0.73104845  0.16014386    -0.12600
C619        C  0.03868124  0.94066944  0.28406700    -0.11000
C620        C  0.07071848  0.96623526  0.29135030    -0.12600
C621        C  0.83172502  0.92069291  0.24359013    -0.11000
C622        C  0.79740043  0.94047699  0.23036773    -0.12600
C623        C  0.73860374  0.78020132  0.53408107    -0.11000
C624        C  0.75180619  0.81454026  0.55387576    -0.12600
C625        C  0.81463519  0.78732779  0.36732736    -0.11000
C626        C  0.77524525  0.77720162  0.37512092    -0.12600
C627        C  0.54225353  0.74414381  0.28925684    -0.11000
C628        C  0.56204456  0.73093594  0.32359077    -0.12600
C629        C  0.70053476  0.55346235  0.50839865    -0.11000
C630        C  0.70782977  0.52144841  0.53398168    -0.12600
C631        C  0.70267278  0.44048303  0.23041258    -0.11000
C632        C  0.66835515  0.42069983  0.24365079    -0.12600
C633        C  0.79957871  0.41199202  0.00837162    -0.11000
C634        C  0.79226560  0.44401519  0.03394615    -0.12600
C635        C  0.92932794  0.46623351  0.19235585    -0.11000
C636        C  0.96133625  0.44065026  0.19966846    -0.12600
C637        C  0.87551777  0.66813252  0.18724809    -0.11000
C638        C  0.88331769  0.70752902  0.19736134    -0.12600
C639        C  0.70554795  0.59944734  0.26706695    -0.11000
C640        C  0.69543729  0.60723436  0.30646606    -0.12600
C641        C  0.73858236  0.68530490  0.03410708    -0.11000
C642        C  0.75179091  0.65097530  0.05389795    -0.12600
C643        C  0.56209505  0.73444895  0.82355094    -0.11000
C644        C  0.54230033  0.72125043  0.78921833    -0.12600
C645        C  0.33173513  0.54481739  0.74006325    -0.11000
C646        C  0.29741734  0.52503439  0.75330133    -0.12600
C647        C  0.53868231  0.52483002  0.69960082    -0.11000
C648        C  0.57072405  0.49926466  0.69231135    -0.12600
C649        C  0.51654704  0.68319725  0.56253226    -0.11000
C650        C  0.54214132  0.69051737  0.53053020    -0.12600
C651        C  0.16836606  0.04482436  0.74012450    -0.11000
C652        C  0.20269067  0.02504033  0.75334676    -0.12600
C653        C  0.29229179  0.02146339  0.94978530    -0.11000
C654        C  0.29959362  0.05350563  0.97535213    -0.12600
C655        C  0.46134463  0.02488952  0.78409743    -0.11000
C656        C  0.42934292  0.99929370  0.79141501    -0.12600
C657        C  0.37556061  0.79738288  0.79642533    -0.11000
C658        C  0.38334745  0.75798625  0.78630150    -0.12600
C659        C  0.23855986  0.78019775  0.94960172    -0.11000
C660        C  0.25179647  0.81450956  0.92980827    -0.12600
C661        C  0.23853653  0.68534279  0.44959684    -0.11000
C662        C  0.25175229  0.65101424  0.42980371    -0.12600
C663        C  0.20782410  0.94403776  0.44970803    -0.11000
C664        C  0.20051031  0.91203893  0.47530452    -0.12600
C665        C  0.04210031  0.77501070  0.45319083    -0.11000
C666        C  0.01651999  0.78232335  0.42116928    -0.12600
C667        C  0.19547359  0.85830086  0.67723354    -0.11000
C668        C  0.20558994  0.86608708  0.71663251    -0.12600
C669        C  0.31464432  0.67819341  0.61631667    -0.11000
C670        C  0.27524760  0.68831048  0.60853871    -0.12600
C671        C  0.06207532  0.73457095  0.66013517    -0.11000
C672        C  0.04228613  0.72134510  0.69445585    -0.12600
loop_ 
_geom_bond_atom_site_label_1 
_geom_bond_atom_site_label_2 
_geom_bond_distance 
_geom_bond_site_symmetry_2 
_ccdc_geom_bond_type 
O1          Cr19   2.031       .  S
O1            C9   1.270       .  A
O2          Cr19   1.952       .  S
O2            C3   1.255       .  A
C3            O4   1.274       .  A
C3          C665   1.437       .  S
O4          Cr20   2.039       .  S
O5          Cr20   1.966       .  S
O5            C6   1.259       .  A
C6            O7   1.273       .  A
C6          C661   1.444       .  S
O7          Cr21   2.043       .  S
O8          Cr21   1.964       .  S
O8            C9   1.256       .  A
C9          C664   1.439       .  S
O10         Cr19   1.943       .  S
O10          C18   1.247       .  A
O11         Cr19   2.024       .  S
O11          C12   1.269       .  A
C12          O13   1.256       .  A
C12         C671   1.446       .  S
O13         Cr20   1.975       .  S
O14         Cr20   2.033       .  S
O14          C15   1.266       .  A
C15          O16   1.246       .  A
C15         C670   1.423       .  S
O16         Cr21   1.944       .  S
O17         Cr21   2.024       .  S
O17          C18   1.270       .  A
C18         C667   1.427       .  S
Cr19         O22   1.768       .  S
Cr20         O22   1.769       .  S
Cr21         O22   1.762       .  S
O23         Cr41   2.024       .  S
O23          C31   1.270       .  A
O24         Cr41   1.944       .  S
O24          C25   1.246       .  A
C25          O26   1.266       .  A
C25         C668   1.423       .  S
O26         Cr42   2.033       .  S
O27         Cr42   1.975       .  S
O27          C28   1.256       .  A
C28          O29   1.269       .  A
C28         C660   1.446       .  S
O29         Cr43   2.024       .  S
O30         Cr43   1.943       .  S
O30          C31   1.247       .  A
C31         C657   1.427       .  S
O32         Cr41   1.964       .  S
O32          C40   1.256       .  A
O33         Cr41   2.043       .  S
O33          C34   1.273       .  A
C34          O35   1.259       .  A
C34         C652   1.444   1_565  S
O35         Cr42   1.966       .  S
O36         Cr42   2.039       .  S
O36          C37   1.274       .  A
C37          O38   1.255       .  A
C37         C653   1.437   1_565  S
O38         Cr43   1.953       .  S
O39         Cr43   2.031       .  S
O39          C40   1.271       .  A
C40         C656   1.439       .  S
Cr41         O44   1.762       .  S
Cr42         O44   1.769       .  S
Cr43         O44   1.768       .  S
O45         Cr63   2.024       .  S
O45          C53   1.270       .  A
O46         Cr63   1.944       .  S
O46          C47   1.246       .  A
C47          O48   1.266       .  A
C47         C658   1.423       .  S
O48         Cr64   2.033       .  S
O49         Cr64   1.975       .  S
O49          C50   1.256       .  A
C50          O51   1.269       .  A
C50         C645   1.446       .  S
O51         Cr65   2.024       .  S
O52         Cr65   1.943       .  S
O52          C53   1.247       .  A
C53         C669   1.427       .  S
O54         Cr63   1.964       .  S
O54          C62   1.256       .  A
O55         Cr63   2.043       .  S
O55          C56   1.273       .  A
C56          O57   1.259       .  A
C56         C644   1.444       .  S
O57         Cr64   1.966       .  S
O58         Cr64   2.039       .  S
O58          C59   1.274       .  A
C59          O60   1.255       .  A
C59         C647   1.437       .  S
O60         Cr65   1.953       .  S
O61         Cr65   2.031       .  S
O61          C62   1.270       .  A
C62         C649   1.439       .  S
Cr63         O66   1.762       .  S
Cr64         O66   1.769       .  S
Cr65         O66   1.768       .  S
O67         Cr85   2.024       .  S
O67          C75   1.270       .  A
O68         Cr85   1.944       .  S
O68          C69   1.246       .  A
C69          O70   1.266       .  A
C69         C639   1.424       .  S
O70         Cr86   2.033       .  S
O71         Cr86   1.975       .  S
O71          C72   1.257       .  A
C72          O73   1.269       .  A
C72         C642   1.446       .  S
O73         Cr87   2.024       .  S
O74         Cr87   1.943       .  S
O74          C75   1.247       .  A
C75         C637   1.427       .  S
O76         Cr85   1.964       .  S
O76          C84   1.256       .  A
O77         Cr85   2.043       .  S
O77          C78   1.273       .  A
C78          O79   1.259       .  A
C78         C631   1.444       .  S
O79         Cr86   1.966       .  S
O80         Cr86   2.039       .  S
O80          C81   1.274       .  A
C81          O82   1.254       .  A
C81         C634   1.437       .  S
O82         Cr87   1.953       .  S
O83         Cr87   2.031       .  S
O83          C84   1.270       .  A
C84         C635   1.439       .  S
Cr85         O88   1.762       .  S
Cr86         O88   1.769       .  S
Cr87         O88   1.768       .  S
O89        Cr107   2.024       .  S
O89          C97   1.270       .  A
O90        Cr107   1.944       .  S
O90          C91   1.246       .  A
C91          O92   1.266       .  A
C91         C626   1.424       .  S
O92        Cr108   2.033       .  S
O93        Cr108   1.975       .  S
O93          C94   1.257       .  A
C94          O95   1.269       .  A
C94         C628   1.446       .  S
O95        Cr109   2.024       .  S
O96        Cr109   1.943       .  S
O96          C97   1.247       .  A
C97         C640   1.427       .  S
O98        Cr107   1.964       .  S
O98         C106   1.256       .  A
O99        Cr107   2.043       .  S
O99         C100   1.273       .  A
C100        O101   1.259       .  A
C100        C623   1.444       .  S
O101       Cr108   1.966       .  S
O102       Cr108   2.039       .  S
O102        C103   1.274       .  A
C103        O104   1.255       .  A
C103        C650   1.437       .  S
O104       Cr109   1.952       .  S
O105       Cr109   2.031       .  S
O105        C106   1.270       .  A
C106        C629   1.439       .  S
Cr107       O110   1.762       .  S
Cr108       O110   1.769       .  S
Cr109       O110   1.768       .  S
O111       Cr129   2.024       .  S
O111        C119   1.270       .  A
O112       Cr129   1.944       .  S
O112        C113   1.246       .  A
C113        O114   1.266       .  A
C113        C638   1.423       .  S
O114       Cr130   2.033       .  S
O115       Cr130   1.975       .  S
O115        C116   1.256       .  A
C116        O117   1.269       .  A
C116        C621   1.446       .  S
O117       Cr131   2.024       .  S
O118       Cr131   1.944       .  S
O118        C119   1.247       .  A
C119        C625   1.427       .  S
O120       Cr129   1.964       .  S
O120        C128   1.256       .  A
O121       Cr129   2.043       .  S
O121        C122   1.273   1_655  A
C122        O123   1.259       .  A
C122        C617   1.444       .  S
O123       Cr130   1.966   1_455  S
O124       Cr130   2.039       .  S
O124        C125   1.274   1_655  A
C125        O126   1.255   1_455  A
C125        C619   1.437       .  S
O126       Cr131   1.953       .  S
O127       Cr131   2.031       .  S
O127        C128   1.270       .  A
C128        C666   1.439   1_655  S
Cr129       O132   1.762       .  S
Cr130       O132   1.769       .  S
Cr131       O132   1.768       .  S
O133       Cr151   2.024       .  S
O133        C141   1.270       .  A
O134       Cr151   1.944       .  S
O134        C135   1.246       .  A
C135        O136   1.266       .  A
C135        C614   1.424       .  S
O136       Cr152   2.033       .  S
O137       Cr152   1.975       .  S
O137        C138   1.257       .  A
C138        O139   1.269       .  A
C138        C615   1.446       .  S
O139       Cr153   2.024       .  S
O140       Cr153   1.943       .  S
O140        C141   1.247       .  A
C141        C611   1.427       .  S
O142       Cr151   1.964       .  S
O142        C150   1.256       .  A
O143       Cr151   2.043       .  S
O143        C144   1.273       .  A
C144        O145   1.259       .  A
C144        C607   1.444       .  S
O145       Cr152   1.966       .  S
O146       Cr152   2.039       .  S
O146        C147   1.274       .  A
C147        O148   1.255       .  A
C147        C655   1.437       .  S
O148       Cr153   1.952       .  S
O149       Cr153   2.031       .  S
O149        C150   1.270       .  A
C150        C610   1.439       .  S
Cr151       O154   1.762       .  S
Cr152       O154   1.769       .  S
Cr153       O154   1.768       .  S
O155       Cr173   2.031       .  S
O155        C163   1.270       .  A
O156       Cr173   1.953       .  S
O156        C157   1.254       .  A
C157        O158   1.274       .  A
C157        C601   1.437   1_556  S
O158       Cr174   2.039       .  S
O159       Cr174   1.966   1_554  S
O159        C160   1.259       .  A
C160        O161   1.273   1_554  A
C160        C599   1.444       .  S
O161       Cr175   2.043       .  S
O162       Cr175   1.964       .  S
O162        C163   1.256       .  A
C163        C633   1.439   1_556  S
O164       Cr173   1.943       .  S
O164        C172   1.247       .  A
O165       Cr173   2.024       .  S
O165        C166   1.269       .  A
C166        O167   1.257       .  A
C166        C605   1.445       .  S
O167       Cr174   1.975       .  S
O168       Cr174   2.033       .  S
O168        C169   1.266       .  A
C169        O170   1.246       .  A
C169        C612   1.424       .  S
O170       Cr175   1.944       .  S
O171       Cr175   2.024       .  S
O171        C172   1.270       .  A
C172        C603   1.427       .  S
Cr173       O176   1.768       .  S
Cr174       O176   1.769       .  S
Cr175       O176   1.762       .  S
O177       Cr195   2.031       .  S
O177        C185   1.270       .  A
O178       Cr195   1.953       .  S
O178        C179   1.255       .  A
C179        O180   1.274       .  A
C179        C630   1.437       .  S
O180       Cr196   2.039       .  S
O181       Cr196   1.966       .  S
O181        C182   1.259       .  A
C182        O183   1.273       .  A
C182        C596   1.444       .  S
O183       Cr197   2.043       .  S
O184       Cr197   1.964       .  S
O184        C185   1.256       .  A
C185        C648   1.439       .  S
O186       Cr195   1.944       .  S
O186        C194   1.247       .  A
O187       Cr195   2.024       .  S
O187        C188   1.269       .  A
C188        O189   1.256       .  A
C188        C598   1.446       .  S
O189       Cr196   1.975       .  S
O190       Cr196   2.033       .  S
O190        C191   1.266       .  A
C191        O192   1.246       .  A
C191        C604   1.423       .  S
O192       Cr197   1.944       .  S
O193       Cr197   2.024       .  S
O193        C194   1.270       .  A
C194        C613   1.427       .  S
Cr195       O198   1.768       .  S
Cr196       O198   1.769       .  S
Cr197       O198   1.762       .  S
O199       Cr217   2.024       .  S
O199        C207   1.270       .  A
O200       Cr217   1.944       .  S
O200        C201   1.246       .  A
C201        O202   1.266       .  A
C201        C590   1.423       .  S
O202       Cr218   2.033       .  S
O203       Cr218   1.975       .  S
O203        C204   1.256       .  A
C204        O205   1.269       .  A
C204        C594   1.446       .  S
O205       Cr219   2.024       .  S
O206       Cr219   1.944       .  S
O206        C207   1.247       .  A
C207        C591   1.427       .  S
O208       Cr217   1.964   1_556  S
O208        C216   1.256   1_556  A
O209       Cr217   2.043       .  S
O209        C210   1.273   1_554  A
C210        O211   1.259       .  A
C210        C587   1.444       .  S
O211       Cr218   1.966   1_556  S
O212       Cr218   2.039       .  S
O212        C213   1.274   1_554  A
C213        O214   1.255   1_556  A
C213        C609   1.437       .  S
O214       Cr219   1.953       .  S
O215       Cr219   2.031       .  S
O215        C216   1.270       .  A
C216        C654   1.439   1_554  S
Cr217       O220   1.762       .  S
Cr218       O220   1.769       .  S
Cr219       O220   1.768       .  S
O221       Cr239   2.024       .  S
O221        C229   1.270       .  A
O222       Cr239   1.944       .  S
O222        C223   1.246       .  A
C223        O224   1.266       .  A
C223        C584   1.424       .  S
O224       Cr240   2.033       .  S
O225       Cr240   1.975       .  S
O225        C226   1.257       .  A
C226        O227   1.269       .  A
C226        C585   1.446       .  S
O227       Cr241   2.024       .  S
O228       Cr241   1.943       .  S
O228        C229   1.247       .  A
C229        C589   1.427       .  S
O230       Cr239   1.964       .  S
O230        C238   1.256       .  A
O231       Cr239   2.043       .  S
O231        C232   1.273   1_455  A
C232        O233   1.259       .  A
C232        C581   1.444       .  S
O233       Cr240   1.966   1_655  S
O234       Cr240   2.039       .  S
O234        C235   1.274   1_455  A
C235        O236   1.254   1_655  A
C235        C636   1.437       .  S
O236       Cr241   1.953       .  S
O237       Cr241   2.030       .  S
O237        C238   1.270       .  A
C238        C602   1.439   1_455  S
Cr239       O242   1.762       .  S
Cr240       O242   1.769       .  S
Cr241       O242   1.768       .  S
O243       Cr261   2.024       .  S
O243        C251   1.270       .  A
O244       Cr261   1.944       .  S
O244        C245   1.246       .  A
C245        O246   1.266       .  A
C245        C592   1.424       .  S
O246       Cr262   2.033       .  S
O247       Cr262   1.975       .  S
O247        C248   1.256       .  A
C248        O249   1.269       .  A
C248        C579   1.446       .  S
O249       Cr263   2.024       .  S
O250       Cr263   1.943       .  S
O250        C251   1.247       .  A
C251        C583   1.427       .  S
O252       Cr261   1.964   1_565  S
O252        C260   1.256       .  A
O253       Cr261   2.043   1_565  S
O253        C254   1.273       .  A
C254        O255   1.259       .  A
C254        C577   1.444       .  S
O255       Cr262   1.966   1_565  S
O256       Cr262   2.039       .  S
O256        C257   1.274   1_545  A
C257        O258   1.255       .  A
C257        C663   1.437       .  S
O258       Cr263   1.953   1_565  S
O259       Cr263   2.031       .  S
O259        C260   1.270   1_545  A
C260        C620   1.439       .  S
Cr261       O264   1.762       .  S
Cr262       O264   1.769       .  S
Cr263       O264   1.768       .  S
O265       Cr283   1.953       .  S
O265        C273   1.255   1_455  A
O266       Cr283   2.031       .  S
O266        C267   1.270       .  A
C267        O268   1.256       .  A
C267        C569   1.439   1_455  S
O268       Cr284   1.964       .  S
O269       Cr284   2.043       .  S
O269        C270   1.273   1_455  A
C270        O271   1.259       .  A
C270        C606   1.444       .  S
O271       Cr285   1.966   1_655  S
O272       Cr285   2.039       .  S
O272        C273   1.274   1_455  A
C273        C571   1.437       .  S
O274       Cr283   2.024       .  S
O274        C282   1.269       .  A
O275       Cr283   1.944       .  S
O275        C276   1.247       .  A
C276        O277   1.270       .  A
C276        C576   1.427       .  S
O277       Cr284   2.024       .  S
O278       Cr284   1.944       .  S
O278        C279   1.246       .  A
C279        O280   1.266       .  A
C279        C574   1.423       .  S
O280       Cr285   2.033       .  S
O281       Cr285   1.975       .  S
O281        C282   1.256       .  A
C282        C651   1.446       .  S
Cr283       O286   1.768       .  S
Cr284       O286   1.762       .  S
Cr285       O286   1.769       .  S
O287       Cr305   1.953       .  S
O287        C295   1.254       .  A
O288       Cr305   2.031       .  S
O288        C289   1.270       .  A
C289        O290   1.256       .  A
C289        C565   1.439       .  S
O290       Cr306   1.964       .  S
O291       Cr306   2.043       .  S
O291        C292   1.273       .  A
C292        O293   1.259       .  A
C292        C646   1.444       .  S
O293       Cr307   1.966       .  S
O294       Cr307   2.039       .  S
O294        C295   1.274       .  A
C295        C563   1.437       .  S
O296       Cr305   2.024       .  S
O296        C304   1.269       .  A
O297       Cr305   1.943       .  S
O297        C298   1.247       .  A
C298        O299   1.270       .  A
C298        C573   1.427       .  S
O299       Cr306   2.024       .  S
O300       Cr306   1.944       .  S
O300        C301   1.246       .  A
C301        O302   1.266       .  A
C301        C567   1.424       .  S
O302       Cr307   2.033       .  S
O303       Cr307   1.975       .  S
O303        C304   1.257       .  A
C304        C588   1.446       .  S
Cr305       O308   1.768       .  S
Cr306       O308   1.762       .  S
Cr307       O308   1.769       .  S
O309       Cr327   1.952       .  S
O309        C317   1.255       .  A
O310       Cr327   2.031       .  S
O310        C311   1.270       .  A
C311        O312   1.256       .  A
C311        C559   1.439       .  S
O312       Cr328   1.964       .  S
O313       Cr328   2.043       .  S
O313        C314   1.273       .  A
C314        O315   1.259       .  A
C314        C580   1.444       .  S
O315       Cr329   1.966       .  S
O316       Cr329   2.039       .  S
O316        C317   1.274       .  A
C317        C561   1.437       .  S
O318       Cr327   2.024       .  S
O318        C326   1.269       .  A
O319       Cr327   1.943       .  S
O319        C320   1.247       .  A
C320        O321   1.270       .  A
C320        C568   1.427       .  S
O321       Cr328   2.024       .  S
O322       Cr328   1.944       .  S
O322        C323   1.246       .  A
C323        O324   1.266       .  A
C323        C575   1.424       .  S
O324       Cr329   2.033       .  S
O325       Cr329   1.975       .  S
O325        C326   1.257       .  A
C326        C608   1.446       .  S
Cr327       O330   1.768       .  S
Cr328       O330   1.762       .  S
Cr329       O330   1.769       .  S
O331       Cr349   1.953   1_565  S
O331        C339   1.255       .  A
O332       Cr349   2.031       .  S
O332        C333   1.270   1_545  A
C333        O334   1.256       .  A
C333        C551   1.439       .  S
O334       Cr350   1.964   1_565  S
O335       Cr350   2.043   1_565  S
O335        C336   1.273       .  A
C336        O337   1.259       .  A
C336        C622   1.444       .  S
O337       Cr351   1.966   1_565  S
O338       Cr351   2.039       .  S
O338        C339   1.274   1_545  A
C339        C553   1.437       .  S
O340       Cr349   2.024       .  S
O340        C348   1.269       .  A
O341       Cr349   1.943       .  S
O341        C342   1.247       .  A
C342        O343   1.270       .  A
C342        C558   1.427       .  S
O343       Cr350   2.024       .  S
O344       Cr350   1.944       .  S
O344        C345   1.246       .  A
C345        O346   1.266       .  A
C345        C555   1.423       .  S
O346       Cr351   2.033       .  S
O347       Cr351   1.975       .  S
O347        C348   1.256       .  A
C348        C600   1.446       .  S
Cr349       O352   1.768       .  S
Cr350       O352   1.762       .  S
Cr351       O352   1.769       .  S
O353       Cr371   1.952       .  S
O353        C361   1.255       .  A
O354       Cr371   2.031       .  S
O354        C355   1.270       .  A
C355        O356   1.256       .  A
C355        C547   1.439       .  S
O356       Cr372   1.964       .  S
O357       Cr372   2.043       .  S
O357        C358   1.273       .  A
C358        O359   1.259       .  A
C358        C597   1.444       .  S
O359       Cr373   1.966       .  S
O360       Cr373   2.039       .  S
O360        C361   1.274       .  A
C361        C570   1.437       .  S
O362       Cr371   2.024       .  S
O362        C370   1.269       .  A
O363       Cr371   1.943       .  S
O363        C364   1.247       .  A
C364        O365   1.270       .  A
C364        C556   1.427       .  S
O365       Cr372   2.024       .  S
O366       Cr372   1.944       .  S
O366        C367   1.246       .  A
C367        O368   1.266       .  A
C367        C549   1.424       .  S
O368       Cr373   2.033       .  S
O369       Cr373   1.975       .  S
O369        C370   1.256       .  A
C370        C582   1.446       .  S
Cr371       O374   1.768       .  S
Cr372       O374   1.762       .  S
Cr373       O374   1.769       .  S
O375       Cr393   1.953       .  S
O375        C383   1.255       .  A
O376       Cr393   2.031       .  S
O376        C377   1.270       .  A
C377        O378   1.256       .  A
C377        C562   1.439       .  S
O378       Cr394   1.964       .  S
O379       Cr394   2.043       .  S
O379        C380   1.273       .  A
C380        O381   1.259       .  A
C380        C593   1.444       .  S
O381       Cr395   1.966       .  S
O382       Cr395   2.039       .  S
O382        C383   1.274       .  A
C383        C546   1.437       .  S
O384       Cr393   2.024       .  S
O384        C392   1.269       .  A
O385       Cr393   1.943       .  S
O385        C386   1.247       .  A
C386        O387   1.270       .  A
C386        C550   1.427       .  S
O387       Cr394   2.024       .  S
O388       Cr394   1.944       .  S
O388        C389   1.246       .  A
C389        O390   1.266       .  A
C389        C557   1.423       .  S
O390       Cr395   2.033       .  S
O391       Cr395   1.975       .  S
O391        C392   1.256       .  A
C392        C632   1.446       .  S
Cr393       O396   1.768       .  S
Cr394       O396   1.762       .  S
Cr395       O396   1.769       .  S
O397       Cr415   1.953       .  S
O397        C405   1.255   1_554  A
O398       Cr415   2.031       .  S
O398        C399   1.270       .  A
C399        O400   1.256   1_554  A
C399        C564   1.439   1_554  S
O400       Cr416   1.964   1_556  S
O401       Cr416   2.043       .  S
O401        C402   1.273   1_554  A
C402        O403   1.259       .  A
C402        C659   1.444       .  S
O403       Cr417   1.966   1_556  S
O404       Cr417   2.039       .  S
O404        C405   1.274   1_554  A
C405        C539   1.437       .  S
O406       Cr415   2.024       .  S
O406        C414   1.269       .  A
O407       Cr415   1.943       .  S
O407        C408   1.247       .  A
C408        O409   1.270       .  A
C408        C544   1.427       .  S
O409       Cr416   2.024       .  S
O410       Cr416   1.944       .  S
O410        C411   1.246       .  A
C411        O412   1.266       .  A
C411        C542   1.424       .  S
O412       Cr417   2.033       .  S
O413       Cr417   1.975       .  S
O413        C414   1.257       .  A
C414        C618   1.445       .  S
Cr415       O418   1.768       .  S
Cr416       O418   1.762       .  S
Cr417       O418   1.769       .  S
O419       Cr437   1.952       .  S
O419        C427   1.255       .  A
O420       Cr437   2.031       .  S
O420        C421   1.270       .  A
C421        O422   1.256       .  A
C421        C536   1.439       .  S
O422       Cr438   1.964       .  S
O423       Cr438   2.043       .  S
O423        C424   1.273       .  A
C424        O425   1.259       .  A
C424        C627   1.444       .  S
O425       Cr439   1.966       .  S
O426       Cr439   2.039       .  S
O426        C427   1.274       .  A
C427        C552   1.437       .  S
O428       Cr437   2.024       .  S
O428        C436   1.269       .  A
O429       Cr437   1.943       .  S
O429        C430   1.247       .  A
C430        O431   1.270       .  A
C430        C541   1.427       .  S
O431       Cr438   2.024       .  S
O432       Cr438   1.944       .  S
O432        C433   1.246       .  A
C433        O434   1.266       .  A
C433        C538   1.424       .  S
O434       Cr439   2.033       .  S
O435       Cr439   1.975       .  S
O435        C436   1.257       .  A
C436        C578   1.446       .  S
Cr437       O440   1.768       .  S
Cr438       O440   1.762       .  S
Cr439       O440   1.769       .  S
O441       Cr459   1.953       .  S
O441        C449   1.255       .  A
O442       Cr459   2.031       .  S
O442        C443   1.270       .  A
C443        O444   1.256       .  A
C443        C545   1.439       .  S
O444       Cr460   1.964       .  S
O445       Cr460   2.043       .  S
O445        C446   1.273       .  A
C446        O447   1.259       .  A
C446        C586   1.444       .  S
O447       Cr461   1.966       .  S
O448       Cr461   2.039       .  S
O448        C449   1.274       .  A
C449        C560   1.437       .  S
O450       Cr459   2.024       .  S
O450        C458   1.269       .  A
O451       Cr459   1.944       .  S
O451        C452   1.247       .  A
C452        O453   1.270       .  A
C452        C537   1.427       .  S
O453       Cr460   2.024       .  S
O454       Cr460   1.944       .  S
O454        C455   1.246       .  A
C455        O456   1.266       .  A
C455        C543   1.423       .  S
O456       Cr461   2.033       .  S
O457       Cr461   1.975       .  S
O457        C458   1.256       .  A
C458        C662   1.446       .  S
Cr459       O462   1.768       .  S
Cr460       O462   1.762       .  S
Cr461       O462   1.769       .  S
O463       Cr481   1.953       .  S
O463        C471   1.255       .  A
O464       Cr481   2.031       .  S
O464        C465   1.270       .  A
C465        O466   1.256       .  A
C465        C554   1.439   1_556  S
O466       Cr482   1.964       .  S
O467       Cr482   2.043       .  S
O467        C468   1.273   1_556  A
C468        O469   1.259       .  A
C468        C641   1.444       .  S
O469       Cr483   1.966   1_554  S
O470       Cr483   2.039       .  S
O470        C471   1.274       .  A
C471        C535   1.437   1_556  S
O472       Cr481   2.024       .  S
O472        C480   1.269       .  A
O473       Cr481   1.944       .  S
O473        C474   1.247       .  A
C474        O475   1.270       .  A
C474        C532   1.427       .  S
O475       Cr482   2.024       .  S
O476       Cr482   1.944       .  S
O476        C477   1.246       .  A
C477        O478   1.266       .  A
C477        C533   1.423       .  S
O478       Cr483   2.033       .  S
O479       Cr483   1.975       .  S
O479        C480   1.256       .  A
C480        C643   1.446       .  S
Cr481       O484   1.768       .  S
Cr482       O484   1.762       .  S
Cr483       O484   1.769       .  S
O485       Cr503   1.953       .  S
O485        C493   1.255       .  A
O486       Cr503   2.031       .  S
O486        C487   1.270       .  A
C487        O488   1.256       .  A
C487        C572   1.439       .  S
O488       Cr504   1.964       .  S
O489       Cr504   2.043       .  S
O489        C490   1.273       .  A
C490        O491   1.259       .  A
C490        C616   1.444   1_565  S
O491       Cr505   1.966       .  S
O492       Cr505   2.039       .  S
O492        C493   1.274       .  A
C493        C548   1.437   1_565  S
O494       Cr503   2.024       .  S
O494        C502   1.269       .  A
O495       Cr503   1.943       .  S
O495        C496   1.247       .  A
C496        O497   1.270       .  A
C496        C530   1.427       .  S
O497       Cr504   2.024       .  S
O498       Cr504   1.944       .  S
O498        C499   1.246       .  A
C499        O500   1.266       .  A
C499        C531   1.424       .  S
O500       Cr505   2.033       .  S
O501       Cr505   1.975       .  S
O501        C502   1.256       .  A
C502        C624   1.446       .  S
Cr503       O506   1.768       .  S
Cr504       O506   1.762       .  S
Cr505       O506   1.769       .  S
O507       Cr525   1.953       .  S
O507        C515   1.254   1_655  A
O508       Cr525   2.030       .  S
O508        C509   1.270       .  A
C509        O510   1.256       .  A
C509        C540   1.439   1_655  S
O510       Cr526   1.964       .  S
O511       Cr526   2.043       .  S
O511        C512   1.273   1_655  A
C512        O513   1.259       .  A
C512        C672   1.444       .  S
O513       Cr527   1.966   1_455  S
O514       Cr527   2.039       .  S
O514        C515   1.274   1_655  A
C515        C566   1.437       .  S
O516       Cr525   2.024       .  S
O516        C524   1.269       .  A
O517       Cr525   1.943       .  S
O517        C518   1.247       .  A
C518        O519   1.270       .  A
C518        C534   1.427       .  S
O519       Cr526   2.024       .  S
O520       Cr526   1.944       .  S
O520        C521   1.246       .  A
C521        O522   1.266       .  A
C521        C529   1.424       .  S
O522       Cr527   2.033       .  S
O523       Cr527   1.975       .  S
O523        C524   1.257       .  A
C524        C595   1.446       .  S
Cr525       O528   1.768       .  S
Cr526       O528   1.762       .  S
Cr527       O528   1.769       .  S
C529        C530   1.202       .  T
C531        C532   1.202       .  T
C533        C534   1.202       .  T
C535        C536   1.208       .  T
C537        C538   1.202       .  T
C539        C540   1.208       .  T
C541        C542   1.202       .  T
C543        C544   1.202       .  T
C545        C546   1.208       .  T
C547        C548   1.208       .  T
C549        C550   1.202       .  T
C551        C552   1.208       .  T
C553        C554   1.208       .  T
C555        C556   1.202       .  T
C557        C558   1.202       .  T
C559        C560   1.208       .  T
C561        C562   1.208       .  T
C563        C564   1.208       .  T
C565        C566   1.208       .  T
C567        C568   1.202       .  T
C569        C570   1.208       .  T
C571        C572   1.208   1_545  T
C573        C574   1.202       .  T
C575        C576   1.202       .  T
C577        C578   1.212       .  T
C579        C580   1.212       .  T
C581        C582   1.212       .  T
C583        C584   1.202       .  T
C585        C586   1.212       .  T
C587        C588   1.212       .  T
C589        C590   1.202       .  T
C591        C592   1.202       .  T
C593        C594   1.212       .  T
C595        C596   1.212       .  T
C597        C598   1.212       .  T
C599        C600   1.212       .  T
C601        C602   1.208       .  T
C603        C604   1.202       .  T
C605        C606   1.212       .  T
C607        C608   1.212       .  T
C609        C610   1.208       .  T
C611        C612   1.202       .  T
C613        C614   1.202       .  T
C615        C616   1.212       .  T
C617        C618   1.212       .  T
C619        C620   1.208       .  T
C621        C622   1.212       .  T
C623        C624   1.212       .  T
C625        C626   1.202       .  T
C627        C628   1.212       .  T
C629        C630   1.208       .  T
C631        C632   1.212       .  T
C633        C634   1.208       .  T
C635        C636   1.208       .  T
C637        C638   1.202       .  T
C639        C640   1.202       .  T
C641        C642   1.212       .  T
C643        C644   1.212       .  T
C645        C646   1.212       .  T
C647        C648   1.208       .  T
C649        C650   1.208       .  T
C651        C652   1.212       .  T
C653        C654   1.208       .  T
C655        C656   1.208   1_545  T
C657        C658   1.202       .  T
C659        C660   1.212       .  T
C661        C662   1.212       .  T
C663        C664   1.208       .  T
C665        C666   1.208       .  T
C667        C668   1.202       .  T
C669        C670   1.202       .  T
C671        C672   1.212       .  T
