geometry optimzed in LAMMPS
_audit_creation_date              2020-11-30 
_audit_creation_method            'lammps2cif' 
_symmetry_space_group_name_H-M    'P1' 
_symmetry_Int_Tables_number       1 
_symmetry_cell_setting            triclinic 
loop_ 
_symmetry_equiv_pos_as_xyz 
  x,y,z 
_cell_length_a                    39.29704219 
_cell_length_b                    39.717366520745365 
_cell_length_c                    30.968329132462618 
_cell_angle_alpha                 90.58824334254697 
_cell_angle_beta                  90.19443623758758 
_cell_angle_gamma                 90.04783294934424 
loop_ 
_atom_site_label 
_atom_site_type_symbol 
_atom_site_fract_x 
_atom_site_fract_y 
_atom_site_fract_z 
_atom_site_charge 
C1          C  0.87900626  0.74950117  0.30485583     0.85800
C2          C  0.85674991  0.77921495  0.31859182    -0.54400
C3          C  0.86894644  0.79711282  0.02150356     0.08700
C4          C  0.90141164  0.78218810  0.04321331     0.19700
C5          C  0.91434307  0.76440726  0.30181592    -0.55100
C6          C  0.92694428  0.77795142  0.00528614     0.08800
C7          C  0.88117849  0.72709217  0.34423447    -0.54700
C8          C  0.89102308  0.74543061  0.05399535     0.09400
H9          H  0.83437202  0.78669935  0.30059553     0.13900
H10         H  0.91128505  0.79701450  0.07114837    -0.00300
H11         H  0.92971170  0.76314038  0.27336026     0.14200
H12         H  0.87298780  0.70130377  0.02214841     0.14000
O13         O  0.90637303  0.53731305  0.24427146    -0.73600
O14         O  0.91265094  0.60866928  0.15557817    -0.74600
O15         O  0.90346421  0.60905366  0.24284318    -0.63200
O16         O  0.91087505  0.53694682  0.14962516    -0.71600
O17         O  0.85462527  0.53860817  0.14483417    -0.71200
O18         O  0.84711090  0.60596584  0.23904762    -0.62400
O19         O  0.85647900  0.61153203  0.15169517    -0.74900
O20         O  0.85012404  0.53523436  0.23973318    -0.73700
Cu21       Cu  0.91026559  0.57227632  0.19845240     1.04600
Cu22       Cu  0.85012399  0.57208348  0.19335562     1.04300
C23         C  0.87800440  0.52658150  0.25843749     0.92600
C24         C  0.88597057  0.62426156  0.14399754     0.91700
C25         C  0.87391096  0.62187093  0.24939942     0.83900
C26         C  0.88313038  0.52807891  0.13059812     0.90100
C27         C  0.88201902  0.16526703  0.08468347     0.85800
C28         C  0.85435943  0.13783121  0.08122565    -0.54400
C29         C  0.84963107  0.12418519  0.37365008     0.08700
C30         C  0.87332902  0.14064953  0.33964405     0.19700
C31         C  0.91408199  0.14779889  0.06688169    -0.55100
C32         C  0.90981384  0.13619325  0.35788601     0.08800
C33         C  0.87219144  0.19096928  0.05030399    -0.54700
C34         C  0.86635044  0.17850244  0.34395298     0.09400
H35         H  0.83848069  0.13002395  0.10787817     0.13900
H36         H  0.86993390  0.13078734  0.30621128    -0.00300
H37         H  0.93848624  0.14735953  0.08330938     0.14200
H38         H  0.86921049  0.21693042  0.39189193     0.14000
O39         O  0.85150452  0.38525358  0.23730438    -0.73600
O40         O  0.85331794  0.30839688  0.15132702    -0.74600
O41         O  0.84928665  0.31452774  0.23857658    -0.63200
O42         O  0.85393084  0.38111968  0.14285675    -0.71600
O43         O  0.91025244  0.38215083  0.14631706    -0.71200
O44         O  0.90564540  0.31114500  0.23964073    -0.62400
O45         O  0.90966250  0.31024179  0.15185333    -0.74900
O46         O  0.90786342  0.38287254  0.24074774    -0.73700
Cu47       Cu  0.85008237  0.34808328  0.19200019     1.04600
Cu48       Cu  0.91031471  0.34727846  0.19460676     1.04300
C49         C  0.87959212  0.39368733  0.25552405     0.92600
C50         C  0.88210910  0.29420634  0.14467524     0.91700
C51         C  0.87643452  0.29968880  0.25037816     0.83900
C52         C  0.88243995  0.39150974  0.12829396     0.90100
O53         O  0.85184720  0.42446848  0.31200192    -0.73600
O54         O  0.85465806  0.49558020  0.07593554    -0.74600
O55         O  0.85079648  0.49446071  0.31415698    -0.63200
O56         O  0.85434154  0.42466479  0.07481862    -0.71600
O57         O  0.91074381  0.42480934  0.07446595    -0.71200
O58         O  0.90719198  0.49483254  0.31238340    -0.62400
O59         O  0.91107325  0.49570197  0.07516230    -0.74900
O60         O  0.90830617  0.42471017  0.31069926    -0.73700
Cu61       Cu  0.85116062  0.46016280  0.02817924     1.02600
Cu62       Cu  0.91144037  0.46037896  0.02732510     1.04300
C63         C  0.87981457  0.41534588  0.29448489     0.92600
C64         C  0.88310788  0.50550870  0.09203442     0.91700
C65         C  0.87849152  0.50431019  0.29680408     0.83900
C66         C  0.88266309  0.41460641  0.09067398     0.90100
C67         C  0.80892145  0.85322078  0.08761138     0.85800
C68         C  0.83754086  0.82726463  0.08023077    -0.54400
C69         C  0.84778778  0.82395032  0.37386121     0.08700
C70         C  0.83062990  0.85042284  0.34446054     0.19700
C71         C  0.82472712  0.88679052  0.07282910    -0.55100
C72         C  0.83683316  0.88464828  0.36706401     0.08800
C73         C  0.78210582  0.84449277  0.05302153    -0.54700
C74         C  0.79257730  0.84421053  0.34964941     0.09400
H75         H  0.84642372  0.80988244  0.10456847     0.13900
H76         H  0.83907825  0.84969621  0.31024693    -0.00300
H77         H  0.82493411  0.90983900  0.09186763     0.14200
H78         H  0.75554047  0.84249425  0.39851309     0.14000
O79         O  0.59020743  0.86710986  0.13431957    -0.73600
O80         O  0.65833504  0.86993816  0.23169388    -0.74600
O81         O  0.66215348  0.87133759  0.14414221    -0.63200
O82         O  0.58685748  0.86650090  0.22823005    -0.71600
O83         O  0.58837031  0.81064988  0.22699173    -0.71200
O84         O  0.66728251  0.81585814  0.14462694    -0.62400
O85         O  0.66020894  0.81423112  0.23196379    -0.74900
O86         O  0.59366182  0.81146376  0.13176849    -0.73700
Cu87       Cu  0.62359843  0.87046621  0.18432502     1.04600
Cu88       Cu  0.62676536  0.81096120  0.18329285     1.04300
C89         C  0.58226580  0.83905986  0.11619152     0.92600
C90         C  0.67194550  0.84265852  0.24474580     0.91700
C91         C  0.68033357  0.84507518  0.13937677     0.83900
C92         C  0.57781598  0.83828061  0.24385142     0.90100
C93         C  0.21900308  0.85473700  0.29091902     0.85800
C94         C  0.19055478  0.83234018  0.30762387    -0.54400
C95         C  0.17634198  0.84473254  0.00787785     0.08700
C96         C  0.18935717  0.87942421  0.02503300     0.19700
C97         C  0.20202802  0.88884598  0.28502173    -0.55100
C98         C  0.18591314  0.90342841  0.98555302     0.08800
C99         C  0.24273135  0.86009190  0.32933823    -0.54700
C100        C  0.22811712  0.87384057  0.02945050     0.09400
H101        H  0.18393024  0.80847278  0.29245075     0.13900
H102        H  0.17689527  0.88847219  0.05509659    -0.00300
H103        H  0.20154593  0.90228056  0.25488231     0.14200
H104        H  0.27038824  0.85875882  0.99112287     0.14000
O105        O  0.43346630  0.81978322  0.13100704    -0.73600
O106        O  0.36172733  0.81811981  0.22050579    -0.74600
O107        O  0.36017624  0.82490717  0.13282572    -0.63200
O108        O  0.43366752  0.81643057  0.22601073    -0.71600
O109        O  0.43516184  0.87213775  0.23016480    -0.71200
O110        O  0.36584362  0.88032918  0.13649779    -0.62400
O111        O  0.36254777  0.87394124  0.22374657    -0.74900
O112        O  0.43803022  0.87535098  0.13541924    -0.73700
Cu113      Cu  0.39794435  0.81783735  0.17732475     1.04600
Cu114      Cu  0.40123312  0.87729357  0.18184864     1.04300
C115        C  0.44567231  0.84732075  0.11691707     0.92600
C116        C  0.34730028  0.84586491  0.22971516     0.91700
C117        C  0.34900020  0.85449684  0.12431299     0.83900
C118        C  0.44393402  0.84354405  0.24495467     0.90100
O119        O  0.54564391  0.81102731  0.29922063    -0.73600
O120        O  0.47600597  0.81745576  0.06187124    -0.74600
O121        O  0.47469219  0.81447130  0.30074095    -0.63200
O122        O  0.54757806  0.81166287  0.06136951    -0.71600
O123        O  0.55081964  0.86735954  0.06102444    -0.71200
O124        O  0.47731945  0.87022791  0.30044258    -0.62400
O125        O  0.47983108  0.87316466  0.06236537    -0.74900
O126        O  0.54786088  0.86685653  0.29932723    -0.73700
Cu127      Cu  0.51083888  0.81189221  0.01401833     1.04600
Cu128      Cu  0.51462664  0.87140622  0.01433493     1.04300
C129        C  0.55600270  0.83849335  0.28249091     0.92600
C130        C  0.46823673  0.84605883  0.07864620     0.91700
C131        C  0.46618425  0.84257158  0.28398473     0.83900
C132        C  0.55940571  0.83916295  0.07751120     0.90100
C133        C  0.76398434  0.09174207  0.32990661     0.85800
C134        C  0.79674217  0.11311577  0.33135029    -0.54400
C135        C  0.82013595  0.10454008  0.02785117     0.08700
C136        C  0.80766985  0.07357853  0.05392827     0.19700
C137        C  0.77631720  0.05622174  0.32229775    -0.55100
C138        C  0.79782945  0.04692233  0.01829652     0.08800
C139        C  0.75107383  0.09285085  0.37533297    -0.54700
C140        C  0.77320072  0.08614810  0.07278183     0.09400
H141        H  0.80095616  0.13532046  0.31201320     0.13900
H142        H  0.82605035  0.06454364  0.07851747    -0.00300
H143        H  0.76878481  0.04218651  0.29345174     0.14200
H144        H  0.72633067  0.10682507  0.05016988     0.14000
O145        O  0.55538801  0.10624522  0.21963649    -0.73600
O146        O  0.63349697  0.09298519  0.14081657    -0.74600
O147        O  0.62486950  0.09847898  0.22724746    -0.63200
O148        O  0.56203139  0.10338574  0.12648490    -0.71600
O149        O  0.57014191  0.15858441  0.12495632    -0.71200
O150        O  0.63242864  0.15383069  0.22752276    -0.62400
O151        O  0.64411053  0.14766570  0.14141917    -0.74900
O152        O  0.56222811  0.16168877  0.22038072    -0.73700
Cu153      Cu  0.59305005  0.09865944  0.17813166     1.04600
Cu154      Cu  0.60175887  0.15765815  0.17767017     1.04300
C155        C  0.54944318  0.13495916  0.23673597     0.92600
C156        C  0.65449107  0.11718964  0.13644104     0.91700
C157        C  0.64058741  0.12476521  0.24068782     0.83900
C158        C  0.55652578  0.13190668  0.10896504     0.90100
C159        C  0.19040498  0.09854018  0.08016145     0.85800
C160        C  0.16129131  0.12421924  0.07239481    -0.54400
C161        C  0.15162521  0.12532216  0.36152942     0.08700
C162        C  0.17082392  0.10065766  0.33131177     0.19700
C163        C  0.17569984  0.06491377  0.06284557    -0.55100
C164        C  0.16710908  0.06580307  0.35201442     0.08800
C165        C  0.21763905  0.10847408  0.04743098    -0.54700
C166        C  0.20804502  0.10989387  0.33784559     0.09400
H167        H  0.15107896  0.14063891  0.09719654     0.13900
H168        H  0.16268443  0.10129461  0.29691965    -0.00300
H169        H  0.17510436  0.04171051  0.08101627     0.14200
H170        H  0.24472139  0.11351139  0.38750462     0.14000
O171        O  0.41082649  0.10098028  0.12719341    -0.73600
O172        O  0.34412429  0.09473139  0.22525270    -0.74600
O173        O  0.33861645  0.09072074  0.13777918    -0.63200
O174        O  0.41449544  0.10357822  0.22118448    -0.71600
O175        O  0.40793333  0.15905252  0.22097076    -0.71200
O176        O  0.32926232  0.14566416  0.13758206    -0.62400
O177        O  0.33717505  0.15014678  0.22442925    -0.74900
O178        O  0.40307624  0.15618659  0.12563880    -0.73700
Cu179      Cu  0.37796668  0.09580092  0.17748651     1.04600
Cu180      Cu  0.36983907  0.15486276  0.17645907     1.04300
C181        C  0.41693570  0.12955882  0.11000686     0.92600
C182        C  0.32804513  0.12112516  0.23725107     0.91700
C183        C  0.31832549  0.11540807  0.13275570     0.83900
C184        C  0.42052180  0.13249580  0.23786473     0.90100
O185        O  0.44970287  0.16199647  0.29550904    -0.73600
O186        O  0.52278580  0.16188661  0.05658623    -0.74600
O187        O  0.52024744  0.16339074  0.29509629    -0.63200
O188        O  0.44998436  0.16019133  0.05760641    -0.71600
O189        O  0.45172330  0.10444932  0.05495096    -0.71200
O190        O  0.52028955  0.10755247  0.29328862    -0.62400
O191        O  0.52322490  0.10609904  0.05339430    -0.74900
O192        O  0.45084583  0.10614831  0.29419837    -0.73700
Cu193      Cu  0.48584845  0.16459937  0.00972657     1.04600
Cu194      Cu  0.48699624  0.10498198  0.00727514     1.04300
C195        C  0.44130984  0.13394795  0.27768550     0.92600
C196        C  0.53346653  0.13357731  0.07088352     0.91700
C197        C  0.52896691  0.13569256  0.27681125     0.83900
C198        C  0.44046097  0.13159206  0.07228822     0.90100
C199        C  0.12838140  0.78310795  0.08160232     0.85800
C200        C  0.15286498  0.81260469  0.07126659    -0.54400
C201        C  0.14995106  0.82259407  0.36668837     0.08700
C202        C  0.12455114  0.80131880  0.33993365     0.19700
C203        C  0.09282260  0.79645043  0.06845847    -0.55100
C204        C  0.09085902  0.80331760  0.36436365     0.08800
C205        C  0.13643120  0.75622669  0.04722731    -0.54700
C206        C  0.13633987  0.76527036  0.34569381     0.09400
H207        H  0.17165308  0.82240976  0.09389073     0.13900
H208        H  0.12236963  0.80864032  0.30563944    -0.00300
H209        H  0.07052332  0.79699992  0.08871439     0.14200
H210        H  0.14376094  0.72978180  0.39481772     0.14000
O211        O  0.11827488  0.63061701  0.23274555    -0.73600
O212        O  0.12111758  0.56852949  0.13101357    -0.74600
O213        O  0.12256470  0.56122891  0.22456800    -0.63200
O214        O  0.11761756  0.64010839  0.14598092    -0.71600
O215        O  0.17384830  0.64352665  0.14498948    -0.71200
O216        O  0.17893167  0.56478933  0.22542370    -0.62400
O217        O  0.17746081  0.57077119  0.13050198    -0.74900
O218        O  0.17447003  0.63535441  0.23202448    -0.73700
Cu219      Cu  0.11810111  0.59932613  0.18308452     1.04600
Cu220      Cu  0.17825502  0.60297480  0.18273349     1.04300
C221        C  0.14538153  0.64539076  0.24518836     0.92600
C222        C  0.14943622  0.56035722  0.11368364     0.91700
C223        C  0.15125361  0.55347437  0.24130492     0.83900
C224        C  0.14472321  0.65735162  0.14032533     0.90100
C225        C  0.11889576  0.19911562  0.29318895     0.85800
C226        C  0.14203210  0.17004028  0.30700713    -0.54400
C227        C  0.13152693  0.15444461  0.01123293     0.08700
C228        C  0.09808115  0.16916244  0.03042949     0.19700
C229        C  0.08433190  0.18233865  0.28831080    -0.55100
C230        C  0.07260207  0.16805280  0.99187337     0.08800
C231        C  0.11577281  0.22135181  0.33295974    -0.54700
C232        C  0.10614648  0.20711713  0.03629771     0.09400
H233        H  0.16482272  0.16293756  0.28954807     0.13900
H234        H  0.08903319  0.15657475  0.06010963    -0.00300
H235        H  0.07044752  0.18107961  0.25813760     0.14200
H236        H  0.12265550  0.24897968  0.99929496     0.14000
O237        O  0.16727956  0.41130172  0.12824840    -0.73600
O238        O  0.16362612  0.33976077  0.21708884    -0.74600
O239        O  0.15616045  0.33929216  0.12963615    -0.63200
O240        O  0.17134813  0.41085695  0.22341958    -0.71600
O241        O  0.11532520  0.41643291  0.22697385    -0.71200
O242        O  0.10081058  0.34892453  0.13301775    -0.62400
O243        O  0.10752173  0.34521149  0.22017942    -0.74900
O244        O  0.11160714  0.41958960  0.13251219    -0.73700
Cu245      Cu  0.16667885  0.37582896  0.17430712     1.04600
Cu246      Cu  0.10706133  0.38351861  0.17849758     1.04300
C247        C  0.14025588  0.42533799  0.11426659     0.92600
C248        C  0.13455492  0.32794881  0.22660486     0.91700
C249        C  0.12540293  0.33023130  0.12135136     0.83900
C250        C  0.14484671  0.42288823  0.24220959     0.90100
O251        O  0.11989038  0.45572649  0.29881552    -0.73600
O252        O  0.12066440  0.52953810  0.05767736    -0.74600
O253        O  0.12339573  0.52505661  0.29791515    -0.63200
O254        O  0.11522365  0.45935634  0.05936787    -0.71600
O255        O  0.17150262  0.45538665  0.06054598    -0.71200
O256        O  0.17980231  0.52269396  0.29709326    -0.62400
O257        O  0.17696756  0.52623433  0.05936633    -0.74900
O258        O  0.17621222  0.45256483  0.29794495    -0.73700
Cu259      Cu  0.11693107  0.49328330  0.01126435     1.04600
Cu260      Cu  0.17710423  0.48966336  0.01254023     1.04300
C261        C  0.14731526  0.44453732  0.28162534     0.92600
C262        C  0.14917277  0.53800652  0.07479274     0.91700
C263        C  0.15172094  0.53263708  0.28044642     0.83900
C264        C  0.14240576  0.44777548  0.07636407     0.90100
O265        O  0.18207434  0.02825568  0.29607178    -0.73600
O266        O  0.16297634  0.95421100  0.21036314    -0.74600
O267        O  0.15293512  0.02534781  0.21394231    -0.63200
O268        O  0.19300641  0.95690193  0.29309872    -0.71600
O269        O  0.14089637  0.94498731  0.98834471    -0.71200
O270        O  0.10223929  0.02124063  0.91663264    -0.62400
O271        O  0.10945512  0.95151453  0.90709687    -0.74900
O272        O  0.13289695  0.01811530  0.99986951    -0.73700
Cu273      Cu  0.17465719  0.99153164  0.25272655     1.04600
Cu274      Cu  0.11962005  0.98380919  0.95448238     1.04300
C275        C  0.15952408  0.03592572  0.99422637     0.92600
C276        C  0.13067834  0.94308783  0.87779697     0.91700
C277        C  0.12026999  0.03526282  0.88744144     0.83900
C278        C  0.17214757  0.93802312  0.98116692     0.90100
O279        O  0.01714749  0.14537100  0.21095803    -0.73600
O280        O  0.94588299  0.15578244  0.30299461    -0.74600
O281        O  0.01659994  0.17050618  0.29718599    -0.63200
O282        O  0.94632089  0.13212606  0.21815211    -0.71600
O283        O  0.95901678  0.08362894  0.91360332    -0.71200
O284        O  0.03254587  0.12220852  0.99124900    -0.62400
O285        O  0.95973484  0.10718610  0.99964579    -0.74900
O286        O  0.02870529  0.09763564  0.90611771    -0.73700
Cu287      Cu  0.98112626  0.15281043  0.25690726     1.04600
Cu288      Cu  0.99539991  0.10088862  0.95383399     1.04300
C289        C  0.03400823  0.12059735  0.87829849     0.92600
C290        C  0.94058950  0.13306008  0.99809327     0.91700
C291        C  0.03810468  0.15368509  0.98687942     0.83900
C292        C  0.94163845  0.10247258  0.88849489     0.90100
O293        O  0.97561229  0.80655427  0.22608384    -0.73600
O294        O  0.05182254  0.78725737  0.31017765    -0.74600
O295        O  0.98104593  0.77638564  0.31018518    -0.63200
O296        O  0.04688285  0.81376612  0.22756914    -0.71600
O297        O  0.03941616  0.86478562  0.92735905    -0.71200
O298        O  0.96682715  0.82450031  0.00483477    -0.62400
O299        O  0.04012882  0.83545889  0.01068987    -0.74900
O300        O  0.96895012  0.85614355  0.92438807    -0.73700
Cu301      Cu  0.01397240  0.79400277  0.26797148     1.04600
Cu302      Cu  0.00363610  0.84689379  0.96837438     1.04300
C303        C  0.96040592  0.83610903  0.89381495     0.92600
C304        C  0.05889336  0.81006681  0.00286837     0.91700
C305        C  0.96068448  0.79337906  0.99719237     0.83900
C306        C  0.05231184  0.84743815  0.89623496     0.90100
O307        O  0.82398905  0.99711739  0.23038265    -0.73600
O308        O  0.81653599  0.92161239  0.31414840    -0.74600
O309        O  0.79842873  0.99178676  0.31530779    -0.63200
O310        O  0.84206354  0.92842464  0.23098601    -0.71600
O311        O  0.88997037  0.94363315  0.92812786    -0.71200
O312        O  0.84627021  0.00983528  0.01093597    -0.62400
O313        O  0.86327608  0.93785696  0.01243652    -0.74900
O314        O  0.87308992  0.01200791  0.92694240    -0.73700
Cu315      Cu  0.81830000  0.95925774  0.27229165     1.04600
Cu316      Cu  0.86984502  0.97623654  0.97095784     1.04300
C317        C  0.85085554  0.01723536  0.89754562     0.92600
C318        C  0.83814547  0.91788140  0.00673491     0.91700
C319        C  0.81449835  0.01474591  0.00519782     0.83900
C320        C  0.87260813  0.92752754  0.89960011     0.90100
C321        C  0.88138272  0.86810758  0.20365560    -0.27000
C322        C  0.88979452  0.90214301  0.87294138    -0.15100
C323        C  0.92224087  0.90858678  0.85600139     0.35600
C324        C  0.94424775  0.88156617  0.84800274    -0.26400
C325        C  0.93557366  0.84937475  0.86280247    -0.15700
C326        C  0.90526102  0.84229079  0.19837523     0.36600
N327        N  0.89400058  0.80822905  0.20053317    -0.89900
H328        H  0.85548199  0.86173770  0.21235193     0.17800
H329        H  0.97055522  0.88709872  0.84030516     0.17800
N330        N  0.93402314  0.94248997  0.85127588    -0.89000
H331        H  0.90247773  0.79932920  0.90355523     0.35100
H332        H  0.90280740  0.79556353  0.17303297     0.40200
H333        H  0.94140041  0.94564438  0.81917875     0.39800
H334        H  0.95558254  0.94575027  0.87078973     0.34700
C335        C  0.87930623  0.09702007  0.20822365    -0.27000
C336        C  0.91298315  0.08761279  0.86479494    -0.15100
C337        C  0.91682583  0.05614544  0.84431940     0.35600
C338        C  0.88895452  0.03428633  0.84209419    -0.26400
C339        C  0.85936093  0.04233293  0.86512843    -0.15700
C340        C  0.85273380  0.07376490  0.21075312     0.36600
N341        N  0.82166457  0.08381460  0.23101556    -0.89900
H342        H  0.87597665  0.12174392  0.22278001     0.17800
H343        H  0.89328920  0.00847249  0.83175627     0.17800
N344        N  0.94973895  0.04493039  0.83063328    -0.89000
H345        H  0.81924268  0.07028998  0.25950221     0.35100
H346        H  0.80153519  0.07712146  0.21050892     0.40200
H347        H  0.94814212  0.03850003  0.79786662     0.39800
H348        H  0.95581810  0.02313283  0.84766989     0.34700
C349        C  0.05308272  0.07695262  0.15877484    -0.27000
C350        C  0.05982268  0.11349872  0.84523851    -0.15100
C351        C  0.09333820  0.12164568  0.85749266     0.35600
C352        C  0.11562522  0.09531047  0.86813199    -0.26400
C353        C  0.10516456  0.06192986  0.86137712    -0.15700
C354        C  0.07538462  0.05090309  0.16959909     0.36600
N355        N  0.06580004  0.01671798  0.16148686    -0.89900
H356        H  0.02800366  0.07031696  0.14674003     0.17800
H357        H  0.13932794  0.10066615  0.88483692     0.17800
N358        N  0.10282672  0.15613048  0.86408141    -0.89000
H359        H  0.06611302  0.02072554  0.78969056     0.35100
H360        H  0.04337704  0.01661421  0.83559279     0.40200
H361        H  0.09816571  0.16477621  0.16430916     0.39800
H362        H  0.12613206  0.15515707  0.20329175     0.34700
C363        C  0.13378024  0.88403704  0.85916290    -0.27000
C364        C  0.12048903  0.91561585  0.84855573    -0.15100
C365        C  0.09025516  0.91295365  0.16952155     0.35600
C366        C  0.06802981  0.88689119  0.17987954    -0.26400
C367        C  0.07614250  0.86357247  0.86668498    -0.15700
C368        C  0.11159885  0.85756625  0.86900423     0.36600
N369        N  0.12568592  0.82687023  0.88541413    -0.89900
H370        H  0.16042485  0.88161827  0.86748919     0.17800
H371        H  0.04093560  0.89028685  0.17486851     0.17800
N372        N  0.07713493  0.94330186  0.15154316    -0.89000
H373        H  0.14581152  0.81346477  0.20066542     0.35100
H374        H  0.11048510  0.80553263  0.22829626     0.40200
H375        H  0.05427121  0.95609860  0.83258188     0.39800
H376        H  0.06454793  0.94074441  0.78335594     0.34700
C377        C  0.10220078  0.23880752  0.23465645    -0.27000
C378        C  0.12904613  0.22240788  0.25637484    -0.15100
C379        C  0.16040755  0.23987272  0.25968806     0.35600
C380        C  0.16150287  0.27460192  0.25121011    -0.26400
C381        C  0.13222057  0.29201139  0.23790662    -0.15700
C382        C  0.10296712  0.27327327  0.22710836     0.36600
N383        N  0.07356483  0.28896287  0.20863973    -0.89900
H384        H  0.07842418  0.22646086  0.22751508     0.17800
H385        H  0.18513810  0.28821332  0.25600217     0.17800
N386        N  0.19012705  0.22306461  0.27552289    -0.89000
H387        H  0.05302539  0.28518718  0.22941009     0.35100
H388        H  0.06801305  0.27668927  0.17945049     0.40200
H389        H  0.21061440  0.23978942  0.27817675     0.39800
H390        H  0.19701286  0.20509652  0.25225609     0.34700
C391        C  0.07917614  0.25181286  0.07775752    -0.27000
C392        C  0.10602928  0.22874246  0.07517095    -0.15100
C393        C  0.13812502  0.23823700  0.09171101     0.35600
C394        C  0.14380024  0.27153029  0.10563336    -0.26400
C395        C  0.11789144  0.29584841  0.10391350    -0.15700
C396        C  0.08464266  0.28512866  0.09135562     0.36600
N397        N  0.05609366  0.30751164  0.08997913    -0.89900
H398        H  0.05463988  0.24507567  0.06403493     0.17800
H399        H  0.16887549  0.27853302  0.11726805     0.17800
N400        N  0.16574624  0.21468300  0.09005279    -0.89000
H401        H  0.06222093  0.32810753  0.07074720     0.35100
H402        H  0.05033153  0.31568628  0.12126662     0.40200
H403        H  0.15975398  0.19589659  0.11200328     0.39800
H404        H  0.18828871  0.22583056  0.10114667     0.34700
C405        C  0.10941865  0.70933649  0.13976418    -0.27000
C406        C  0.14174774  0.69462912  0.13539576    -0.15100
C407        C  0.17024461  0.71653852  0.13474359     0.35600
C408        C  0.16526297  0.75170912  0.13183160    -0.26400
C409        C  0.13231244  0.76495086  0.12473102    -0.15700
C410        C  0.10495259  0.74424595  0.13750993     0.36600
N411        N  0.07233340  0.75834177  0.14711682    -0.89900
H412        H  0.08721848  0.69384522  0.14535051     0.17800
H413        H  0.18730368  0.76732284  0.12568865     0.17800
N414        N  0.20415887  0.70340309  0.13473628    -0.89000
H415        H  0.06630925  0.75221892  0.17894811     0.35100
H416        H  0.05429997  0.74677720  0.12693146     0.40200
H417        H  0.21716586  0.71391424  0.16111582     0.39800
H418        H  0.21621108  0.71133776  0.10654497     0.34700
C419        C  0.17259892  0.69027100  0.28914517    -0.27000
C420        C  0.14289484  0.67676498  0.27058957    -0.15100
C421        C  0.11234226  0.69573869  0.27175273     0.35600
C422        C  0.11236331  0.72726065  0.29197711    -0.26400
C423        C  0.14156233  0.73996816  0.31187541    -0.15700
C424        C  0.17222881  0.72145790  0.31017095     0.36600
N425        N  0.20304381  0.73305727  0.33063396    -0.89900
H426        H  0.19629119  0.67635607  0.28784134     0.17800
H427        H  0.08874464  0.74077918  0.29495316     0.17800
N428        N  0.08119371  0.68298287  0.25325270    -0.89000
H429        H  0.21013165  0.72207837  0.01089300     0.35100
H430        H  0.19925948  0.76207741  0.00065690     0.40200
H431        H  0.08406112  0.68272305  0.21977492     0.39800
H432        H  0.06086979  0.69924749  0.25966928     0.34700
C433        C  0.23269530  0.06973429  0.12513103    -0.27000
C434        C  0.20968938  0.09701994  0.12322249    -0.15100
C435        C  0.22210910  0.12800428  0.13990276     0.35600
C436        C  0.25758702  0.13397338  0.14119353    -0.26400
C437        C  0.28094765  0.10851578  0.12960659    -0.15700
C438        C  0.26801016  0.07545122  0.12396360     0.36600
N439        N  0.29028955  0.04765718  0.11532748    -0.89900
H440        H  0.22400416  0.04447944  0.11779617     0.17800
H441        H  0.26685975  0.15856712  0.15106411     0.17800
N442        N  0.19865665  0.15397833  0.15212571    -0.89000
H443        H  0.28352191  0.03715727  0.08541455     0.35100
H444        H  0.28626190  0.02941084  0.13887991     0.40200
H445        H  0.21209637  0.17463929  0.49484307     0.39800
H446        H  0.18455017  0.14451982  0.50896937     0.34700
C447        C  0.24434968  0.08855901  0.27998854    -0.27000
C448        C  0.23346833  0.11610248  0.30450841    -0.15100
C449        C  0.25352729  0.14546398  0.30699675     0.35600
C450        C  0.28438532  0.14658041  0.28471716    -0.26400
C451        C  0.29640666  0.11818782  0.26215347    -0.15700
C452        C  0.27600861  0.08882207  0.25959419     0.36600
N453        N  0.28766615  0.05907562  0.23734395    -0.89900
H454        H  0.22947607  0.06573395  0.27967906     0.17800
H455        H  0.29976518  0.16921086  0.28650628     0.17800
N456        N  0.24374254  0.17279372  0.33512715    -0.89000
H457        H  0.26990977  0.03955067  0.23974184     0.35100
H458        H  0.28921183  0.06477268  0.20468298     0.40200
H459        H  0.22011109  0.18220323  0.99435631     0.39800
H460        H  0.26075381  0.19289156  0.33260929     0.34700
C461        C  0.73024706  0.13227397  0.28388808    -0.27000
C462        C  0.73385027  0.10023867  0.30189803    -0.15100
C463        C  0.70507280  0.07847336  0.30331266     0.35600
C464        C  0.67434286  0.08872436  0.28641128    -0.26400
C465        C  0.67092194  0.12008566  0.26728257    -0.15700
C466        C  0.69902966  0.14255924  0.26690933     0.36600
N467        N  0.69685369  0.17587624  0.24988565    -0.89900
H468        H  0.75104416  0.15007670  0.28439868     0.17800
H469        H  0.65300047  0.07142797  0.28771713     0.17800
N470        N  0.70633858  0.04648821  0.32447244    -0.89000
H471        H  0.67781768  0.18899777  0.26651547     0.35100
H472        H  0.69053545  0.17436282  0.21721470     0.40200
H473        H  0.69931288  0.02777285  0.30217336     0.39800
H474        H  0.68855784  0.04663050  0.34953622     0.34700
C475        C  0.70124995  0.07422529  0.13197395    -0.27000
C476        C  0.69161139  0.10855659  0.13175245    -0.15100
C477        C  0.71807822  0.13288156  0.13360454     0.35600
C478        C  0.75237720  0.12228158  0.12971714    -0.26400
C479        C  0.76006707  0.08884623  0.11743369    -0.15700
C480        C  0.73542387  0.06429400  0.12638777     0.36600
N481        N  0.74416348  0.02937006  0.12145327    -0.89900
H482        H  0.68201859  0.05483601  0.13467237     0.17800
H483        H  0.77186731  0.14122251  0.12561957     0.17800
N484        N  0.71032562  0.16814327  0.13703127    -0.89000
H485        H  0.72295547  0.01416241  0.12712726     0.35100
H486        H  0.76201681  0.02376276  0.14543229     0.40200
H487        H  0.69844016  0.17517081  0.10825822     0.39800
H488        H  0.73266953  0.18237636  0.13940159     0.34700
C489        C  0.29599108  0.81533078  0.25500983    -0.27000
C490        C  0.31058055  0.84500522  0.23886704    -0.15100
C491        C  0.28880255  0.86968043  0.22124885     0.35600
C492        C  0.25363862  0.86581857  0.22526528    -0.26400
C493        C  0.24031771  0.84159679  0.25329954    -0.15700
C494        C  0.26066318  0.81295789  0.26115733     0.36600
N495        N  0.24617269  0.78384350  0.28106184    -0.89900
H496        H  0.31216621  0.79447047  0.26407971     0.17800
H497        H  0.23747347  0.88463471  0.21107531     0.17800
N498        N  0.30218222  0.89835057  0.19890440    -0.89000
H499        H  0.26488432  0.76569634  0.28666036     0.35100
H500        H  0.22909421  0.77317448  0.25885241     0.40200
H501        H  0.31341125  0.91419323  0.22204602     0.39800
H502        H  0.28260719  0.91234520  0.18483878     0.34700
C503        C  0.25707026  0.84206996  0.08584048    -0.27000
C504        C  0.24984688  0.87377992  0.06834963    -0.15100
C505        C  0.27392834  0.89978481  0.07308870     0.35600
C506        C  0.30605758  0.89265700  0.09085165    -0.26400
C507        C  0.31477455  0.85997894  0.10443674    -0.15700
C508        C  0.28909736  0.83491438  0.10419162     0.36600
N509        N  0.29557857  0.80219751  0.12184810    -0.89900
H510        H  0.23873476  0.82189462  0.08147548     0.17800
H511        H  0.32470573  0.91270387  0.09297650     0.17800
N512        N  0.26629832  0.93290815  0.05736412    -0.89000
H513        H  0.27437631  0.78653491  0.11779676     0.35100
H514        H  0.29885629  0.80529401  0.15516421     0.40200
H515        H  0.26420327  0.93149938  0.02373886     0.39800
H516        H  0.28637418  0.94946173  0.06409663     0.34700
C517        C  0.73867510  0.82097319  0.14473441    -0.27000
C518        C  0.71786662  0.84895612  0.13644713    -0.15100
C519        C  0.73362837  0.88105796  0.13480055     0.35600
C520        C  0.76931517  0.88326420  0.13592242    -0.26400
C521        C  0.78945532  0.85419493  0.13026156    -0.15700
C522        C  0.77428877  0.82362748  0.14301428     0.36600
N523        N  0.79442543  0.79411796  0.14810173    -0.89900
H524        H  0.72746636  0.79663252  0.15131194     0.17800
H525        H  0.78063746  0.90787398  0.13280448     0.17800
N526        N  0.71375063  0.91125749  0.13070306    -0.89000
H527        H  0.79021009  0.78493135  0.17915696     0.35100
H528        H  0.78516847  0.77629963  0.12595166     0.40200
H529        H  0.70228514  0.91055873  0.10018281     0.39800
H530        H  0.72929127  0.93264032  0.13136202     0.34700
C531        C  0.74900467  0.87411271  0.30824348    -0.27000
C532        C  0.76649626  0.84397905  0.31549672    -0.15100
C533        C  0.75236209  0.81348227  0.30088548     0.35600
C534        C  0.72141916  0.81360976  0.27829439    -0.26400
C535        C  0.70341154  0.84375492  0.27141485    -0.15700
C536        C  0.71759797  0.87446593  0.28664532     0.36600
N537        N  0.69984699  0.90581160  0.28136998    -0.89900
H538        H  0.75855686  0.89723524  0.32251400     0.17800
H539        H  0.71127982  0.78979747  0.26670285     0.17800
N540        N  0.76740975  0.78051125  0.97844352    -0.89000
H541        H  0.71431484  0.92595543  0.29337678     0.35100
H542        H  0.67788993  0.90479178  0.30030520     0.40200
H543        H  0.77130044  0.76599351  0.95054043     0.39800
H544        H  0.75017661  0.76771713  0.99802797     0.34700
C545        C  0.91657889  0.20577248  0.12678883    -0.27000
C546        C  0.88649047  0.18624521  0.12595033    -0.15100
C547        C  0.85692517  0.20191119  0.14273850     0.35600
C548        C  0.85563656  0.23717893  0.14701745    -0.26400
C549        C  0.88391194  0.25730223  0.13680532    -0.15700
C550        C  0.91517773  0.24100948  0.12858489     0.36600
N551        N  0.94552595  0.25994514  0.12053411    -0.89900
H552        H  0.94073135  0.19475747  0.11808209     0.17800
H553        H  0.83217817  0.24874600  0.15788737     0.17800
N554        N  0.82704839  0.18254664  0.15119984    -0.89000
H555        H  0.95445312  0.25334009  0.08981744     0.35100
H556        H  0.96391335  0.25291741  0.14318600     0.40200
H557        H  0.80735812  0.19173785  0.13184994     0.39800
H558        H  0.82032500  0.18653952  0.18349621     0.34700
C559        C  0.88691300  0.20756060  0.27866871    -0.27000
C560        C  0.86127597  0.20355172  0.30935287    -0.15100
C561        C  0.83814541  0.23015455  0.31657940     0.35600
C562        C  0.84427119  0.26163290  0.29810271    -0.26400
C563        C  0.87299602  0.26704446  0.27229483    -0.15700
C564        C  0.89398583  0.23933794  0.26125560     0.36600
N565        N  0.92209198  0.24331647  0.23214040    -0.89900
H566        H  0.90281460  0.18652454  0.27030235     0.17800
H567        H  0.82691880  0.28224296  0.30462748     0.17800
N568        N  0.80974128  0.22542480  0.34503205    -0.89000
H569        H  0.93347548  0.22005913  0.22540872     0.35100
H570        H  0.94057299  0.25779047  0.24805592     0.40200
H571        H  0.79398003  0.20708584  0.33102070     0.39800
H572        H  0.79532614  0.24746815  0.34749383     0.34700
C573        C  0.83788407  0.70883828  0.27399020    -0.27000
C574        C  0.86724310  0.72823233  0.26631042    -0.15100
C575        C  0.89227079  0.71327991  0.23980375     0.35600
C576        C  0.89553718  0.67851345  0.23918149    -0.26400
C577        C  0.87070124  0.65814942  0.25789164    -0.15700
C578        C  0.83993435  0.67338868  0.27187311     0.36600
N579        N  0.81169664  0.65312434  0.28545309    -0.89900
H580        H  0.81660437  0.72032477  0.29068659     0.17800
H581        H  0.91652652  0.66749348  0.22134864     0.17800
N582        N  0.91360412  0.73295181  0.21251327    -0.89000
H583        H  0.79114642  0.66835153  0.29440159     0.35100
H584        H  0.81930285  0.64023975  0.31311843     0.40200
H585        H  0.90831393  0.72602800  0.18063703     0.39800
H586        H  0.93893932  0.72646878  0.21848444     0.34700
C587        C  0.86133325  0.68038751  0.12684242    -0.27000
C588        C  0.88957841  0.65890790  0.12612748    -0.15100
C589        C  0.92142291  0.67253327  0.11344297     0.35600
C590        C  0.92333559  0.70563283  0.09758416    -0.26400
C591        C  0.89411798  0.72568309  0.09398126    -0.15700
C592        C  0.86348281  0.71339677  0.11140630     0.36600
N593        N  0.83342186  0.73342702  0.10944842    -0.89900
H594        H  0.83708803  0.67144001  0.13872252     0.17800
H595        H  0.94698543  0.71424303  0.08352575     0.17800
N596        N  0.95174274  0.65259857  0.11484373    -0.89000
H597        H  0.82380024  0.73469139  0.14083148     0.35100
H598        H  0.81557975  0.72070426  0.09016617     0.40200
H599        H  0.96943101  0.66511890  0.13456286     0.39800
H600        H  0.96176156  0.65115718  0.08364377     0.34700
C601        C  0.87679753  0.74860781  0.63971146     0.85800
C602        C  0.85562396  0.77949756  0.65209202    -0.54400
C603        C  0.86758392  0.79536975  0.35563450     0.08700
C604        C  0.90051732  0.78013147  0.37572600     0.19700
C605        C  0.91284359  0.76198498  0.63517373    -0.55100
C606        C  0.92636134  0.78020906  0.33781332     0.08800
C607        C  0.87889527  0.72763022  0.68044785    -0.54700
C608        C  0.89158418  0.74229498  0.38113074     0.09400
H609        H  0.83291372  0.78673789  0.63452343     0.13900
H610        H  0.90960804  0.79290136  0.40566872    -0.00300
H611        H  0.92793223  0.75857555  0.60659013     0.14200
H612        H  0.87529498  0.70031786  0.34318652     0.14000
O613        O  0.90867967  0.53755432  0.57686359    -0.73600
O614        O  0.91213002  0.60517846  0.48325836    -0.74600
O615        O  0.90443085  0.60971527  0.57044312    -0.63200
O616        O  0.91195633  0.53407536  0.48206267    -0.71600
O617        O  0.85561814  0.53501920  0.47789120    -0.71200
O618        O  0.84813896  0.60462947  0.56862875    -0.62400
O619        O  0.85587684  0.60734495  0.48060263    -0.74900
O620        O  0.85249950  0.53391889  0.57242306    -0.73700
Cu621      Cu  0.91129121  0.57096934  0.52864292     1.04600
Cu622      Cu  0.85111393  0.56945992  0.52461976     1.04300
C623        C  0.88060112  0.52618332  0.59122697     0.92600
C624        C  0.88508798  0.61978855  0.47098017     0.91700
C625        C  0.87458488  0.62149300  0.57793360     0.83900
C626        C  0.88415768  0.52486357  0.46348396     0.90100
C627        C  0.88171635  0.16422128  0.41817575     0.85800
C628        C  0.85436928  0.13642619  0.41492235    -0.54400
C629        C  0.85023573  0.12614652  0.70876955     0.08700
C630        C  0.87370111  0.14192253  0.67407357     0.19700
C631        C  0.91377971  0.14742566  0.39923105    -0.55100
C632        C  0.91038579  0.13768656  0.69176866     0.08800
C633        C  0.87108084  0.19016371  0.38448314    -0.54700
C634        C  0.86665048  0.17969459  0.67775116     0.09400
H635        H  0.83901931  0.12822386  0.44188546     0.13900
H636        H  0.86993362  0.13159180  0.64093356    -0.00300
H637        H  0.93840332  0.14696222  0.41509645     0.14200
H638        H  0.86978718  0.21881717  0.72497506     0.14000
O639        O  0.85403660  0.38527782  0.56986837    -0.73600
O640        O  0.85429293  0.30739384  0.48484022    -0.74600
O641        O  0.85065423  0.31477313  0.57174849    -0.63200
O642        O  0.85564294  0.38007877  0.47512996    -0.71600
O643        O  0.91196642  0.38103564  0.47823628    -0.71200
O644        O  0.90692429  0.31019509  0.57193601    -0.62400
O645        O  0.91060090  0.30908462  0.48418040    -0.74900
O646        O  0.91031621  0.38201753  0.57334872    -0.73700
Cu647      Cu  0.85175673  0.34770752  0.52485544     1.04600
Cu648      Cu  0.91194360  0.34626798  0.52687222     1.04300
C649        C  0.88222799  0.39322891  0.58827996     0.92600
C650        C  0.88295107  0.29294516  0.47805166     0.91700
C651        C  0.87755834  0.29934215  0.58305019     0.83900
C652        C  0.88409174  0.39018918  0.46013088     0.90100
O653        O  0.85454505  0.42390221  0.64503905    -0.73600
O654        O  0.85541448  0.49315997  0.40886067    -0.74600
O655        O  0.85354217  0.49391207  0.64661107    -0.63200
O656        O  0.85547142  0.42270753  0.40651361    -0.71600
O657        O  0.91186952  0.42311481  0.40537142    -0.71200
O658        O  0.90994549  0.49463845  0.64556510    -0.62400
O659        O  0.91184787  0.49362578  0.40712959    -0.74900
O660        O  0.91097713  0.42418666  0.64417195    -0.73700
Cu661      Cu  0.85145584  0.45869092  0.36061705     1.02600
Cu662      Cu  0.91174644  0.45910606  0.35874886     1.04300
C663        C  0.88256345  0.41480518  0.62760478     0.92600
C664        C  0.88399265  0.50284261  0.42473013     0.91700
C665        C  0.88130450  0.50399609  0.62967652     0.83900
C666        C  0.88398869  0.41287270  0.42207007     0.90100
C667        C  0.81019415  0.85274520  0.42460221     0.85800
C668        C  0.83742948  0.82544338  0.41618937    -0.54400
C669        C  0.84782400  0.82553322  0.70607110     0.08700
C670        C  0.83060663  0.85225044  0.67700601     0.19700
C671        C  0.82720298  0.88559143  0.40923446    -0.55100
C672        C  0.83559007  0.88631911  0.70074440     0.08800
C673        C  0.78231298  0.84519687  0.39086658    -0.54700
C674        C  0.79261425  0.84517494  0.68107731     0.09400
H675        H  0.84620212  0.80773450  0.44019765     0.13900
H676        H  0.83956500  0.85219442  0.64300325    -0.00300
H677        H  0.82846606  0.90868121  0.42815839     0.14200
H678        H  0.75466386  0.84227730  0.72888198     0.14000
O679        O  0.59161690  0.86846831  0.46569490    -0.73600
O680        O  0.65887152  0.86995515  0.56349289    -0.74600
O681        O  0.66394383  0.87237889  0.47636183    -0.63200
O682        O  0.58774428  0.86666135  0.55940955    -0.71600
O683        O  0.58948576  0.81082939  0.55791076    -0.71200
O684        O  0.66901505  0.81690795  0.47613217    -0.62400
O685        O  0.66119908  0.81426712  0.56301299    -0.74900
O686        O  0.59502914  0.81281909  0.46274452    -0.73700
Cu687      Cu  0.62475801  0.87109964  0.51592434     1.04600
Cu688      Cu  0.62804609  0.81159827  0.51426032     1.04300
C689        C  0.58344226  0.84049769  0.44760820     0.92600
C690        C  0.67269469  0.84268699  0.57609475     0.91700
C691        C  0.68234699  0.84616331  0.47228076     0.83900
C692        C  0.57892465  0.83836901  0.57505278     0.90100
C693        C  0.21942624  0.85829594  0.62402087     0.85800
C694        C  0.19207601  0.83461423  0.64103141    -0.54400
C695        C  0.17522520  0.84419656  0.34453257     0.08700
C696        C  0.18943813  0.87877785  0.36090772     0.19700
C697        C  0.20039996  0.89111105  0.61747432    -0.55100
C698        C  0.18744660  0.90243247  0.32096256     0.08800
C699        C  0.24292198  0.86527202  0.66227398    -0.54700
C700        C  0.22792593  0.87194648  0.36572143     0.09400
H701        H  0.18588624  0.81077594  0.62553261     0.13900
H702        H  0.17721706  0.88878715  0.39064139    -0.00300
H703        H  0.19876037  0.90380896  0.58683574     0.14200
H704        H  0.26981989  0.85446249  0.32825871     0.14000
O705        O  0.43305462  0.82068016  0.46469299    -0.73600
O706        O  0.36298517  0.82224506  0.55639301    -0.74600
O707        O  0.36006408  0.82702013  0.46861209    -0.63200
O708        O  0.43462539  0.81875241  0.55924444    -0.71600
O709        O  0.43725129  0.87448830  0.56249069    -0.71200
O710        O  0.36639744  0.88245559  0.47065402    -0.62400
O711        O  0.36489388  0.87805610  0.55825737    -0.74900
O712        O  0.43851360  0.87622983  0.46795639    -0.73700
Cu713      Cu  0.39828450  0.82021481  0.51200874     1.04600
Cu714      Cu  0.40263277  0.87968418  0.51509752     1.04300
C715        C  0.44562270  0.84786177  0.45001254     0.92600
C716        C  0.34927450  0.85040136  0.56544099     0.91700
C717        C  0.34914643  0.85656372  0.45960121     0.83900
C718        C  0.44561795  0.84582556  0.57744980     0.90100
O719        O  0.54677313  0.81117565  0.63082646    -0.73600
O720        O  0.47640949  0.81732390  0.39584982    -0.74600
O721        O  0.47602791  0.81618501  0.63254851    -0.63200
O722        O  0.54819742  0.81285559  0.39409075    -0.71600
O723        O  0.55049525  0.86860938  0.39348172    -0.71200
O724        O  0.47963951  0.87191795  0.63250360    -0.62400
O725        O  0.47928455  0.87309090  0.39497751    -0.74900
O726        O  0.54992387  0.86694833  0.63139893    -0.73700
Cu727      Cu  0.51108731  0.81196188  0.34766485     1.04600
Cu728      Cu  0.51384326  0.87155643  0.34706149     1.04300
C729        C  0.55745209  0.83855496  0.61413575     0.92600
C730        C  0.46813713  0.84606203  0.41184865     0.91700
C731        C  0.46802635  0.84449658  0.61603466     0.83900
C732        C  0.55988601  0.84054592  0.40971043     0.90100
C733        C  0.76461166  0.09337096  0.66496789     0.85800
C734        C  0.79688514  0.11544023  0.66695653    -0.54400
C735        C  0.81979461  0.10272173  0.36196108     0.08700
C736        C  0.80792853  0.07118437  0.38765671     0.19700
C737        C  0.77790183  0.05823896  0.65758799    -0.55100
C738        C  0.79897166  0.04440828  0.35172058     0.08800
C739        C  0.75127686  0.09430221  0.71018353    -0.54700
C740        C  0.77283697  0.08242819  0.40608635     0.09400
H741        H  0.80095180  0.13757324  0.64743106     0.13900
H742        H  0.82635962  0.06252587  0.41240918    -0.00300
H743        H  0.77110844  0.04415748  0.62848000     0.14200
H744        H  0.72554778  0.10174614  0.38290827     0.14000
O745        O  0.55519925  0.10477334  0.55447714    -0.73600
O746        O  0.63239362  0.08971540  0.47432530    -0.74600
O747        O  0.62498038  0.09612679  0.56096775    -0.63200
O748        O  0.56073381  0.10117123  0.46099149    -0.71600
O749        O  0.56971208  0.15620190  0.45855012    -0.71200
O750        O  0.63228467  0.15149972  0.56058020    -0.62400
O751        O  0.64354834  0.14428774  0.47448588    -0.74900
O752        O  0.56208906  0.16018830  0.55382272    -0.73700
Cu753      Cu  0.59238002  0.09629803  0.51234388     1.04600
Cu754      Cu  0.60148123  0.15520419  0.51096417     1.04300
C755        C  0.54918904  0.13375620  0.57080018     0.92600
C756        C  0.65358885  0.11369256  0.46946706     0.91700
C757        C  0.64079319  0.12256078  0.57380078     0.83900
C758        C  0.55555453  0.12963998  0.44308256     0.90100
C759        C  0.19116901  0.09813753  0.41166094     0.85800
C760        C  0.16173796  0.12348021  0.40417152    -0.54400
C761        C  0.15262014  0.12614925  0.69782771     0.08700
C762        C  0.17224920  0.10187973  0.66740698     0.19700
C763        C  0.17681247  0.06451576  0.39414570    -0.55100
C764        C  0.16810502  0.06683395  0.68730798     0.08800
C765        C  0.21833794  0.10852026  0.37902582    -0.54700
C766        C  0.20949327  0.11078519  0.67488470     0.09400
H767        H  0.15120011  0.13943960  0.42918606     0.13900
H768        H  0.16456998  0.10294171  0.63287656    -0.00300
H769        H  0.17626537  0.04124272  0.41216490     0.14200
H770        H  0.24532048  0.11373545  0.72528622     0.14000
O771        O  0.41058259  0.09982406  0.46082373    -0.73600
O772        O  0.34508597  0.09263985  0.55991003    -0.74600
O773        O  0.33875916  0.08943530  0.47233285    -0.63200
O774        O  0.41509746  0.10188100  0.55470869    -0.71600
O775        O  0.40834048  0.15737274  0.55446794    -0.71200
O776        O  0.32942922  0.14440896  0.47254037    -0.62400
O777        O  0.33817558  0.14808039  0.55952407    -0.74900
O778        O  0.40269313  0.15503429  0.45954060    -0.73700
Cu779      Cu  0.37832995  0.09421224  0.51150412     1.04600
Cu780      Cu  0.37009303  0.15330260  0.51084315     1.04300
C781        C  0.41640542  0.12844497  0.44362255     0.92600
C782        C  0.32945999  0.11905062  0.57277649     0.91700
C783        C  0.31858171  0.11420002  0.46727971     0.83900
C784        C  0.42083325  0.13083980  0.57141437     0.90100
O785        O  0.44888357  0.16093809  0.62885902    -0.73600
O786        O  0.52200518  0.15994558  0.39072740    -0.74600
O787        O  0.51926377  0.16305535  0.62801566    -0.63200
O788        O  0.44924247  0.15906249  0.39110543    -0.71600
O789        O  0.45052930  0.10330291  0.38814870    -0.71200
O790        O  0.51980458  0.10721692  0.62782374    -0.62400
O791        O  0.52196085  0.10416932  0.38737889    -0.74900
O792        O  0.45048666  0.10506776  0.62863544    -0.73700
Cu793      Cu  0.48527564  0.16314989  0.34352758     1.04600
Cu794      Cu  0.48595550  0.10352869  0.34081888     1.04300
C795        C  0.44100613  0.13262209  0.61146408     0.92600
C796        C  0.53240875  0.13151468  0.40501841     0.91700
C797        C  0.52839528  0.13511754  0.61064605     0.83900
C798        C  0.43957006  0.13048915  0.40566490     0.90100
C799        C  0.12883536  0.78293297  0.42045067     0.85800
C800        C  0.15242179  0.81296879  0.40921949    -0.54400
C801        C  0.15018588  0.82444232  0.69877654     0.08700
C802        C  0.12412789  0.80446628  0.67125468     0.19700
C803        C  0.09288845  0.79495335  0.40684889    -0.55100
C804        C  0.09054605  0.80606611  0.69628471     0.08800
C805        C  0.13770460  0.75566889  0.38691764    -0.54700
C806        C  0.13529471  0.76801268  0.67492314     0.09400
H807        H  0.17094379  0.82366137  0.43153317     0.13900
H808        H  0.12192707  0.81298445  0.63744681    -0.00300
H809        H  0.07062063  0.79548906  0.42718287     0.14200
H810        H  0.14287308  0.73095891  0.72222329     0.14000
O811        O  0.12127899  0.63241899  0.56423060    -0.73600
O812        O  0.12484309  0.56818291  0.46441914    -0.74600
O813        O  0.12601553  0.56233635  0.55796168    -0.63200
O814        O  0.12088285  0.64008118  0.47761825    -0.71600
O815        O  0.17704706  0.64433133  0.47776243    -0.71200
O816        O  0.18236013  0.56565722  0.55919448    -0.62400
O817        O  0.18112847  0.57087523  0.46374521    -0.74900
O818        O  0.17748021  0.63706123  0.56461791    -0.73700
Cu819      Cu  0.12153696  0.59992722  0.51563070     1.04600
Cu820      Cu  0.18164190  0.60382313  0.51584866     1.04300
C821        C  0.14820205  0.64768366  0.57642929     0.92600
C822        C  0.15317022  0.55987412  0.44721091     0.91700
C823        C  0.15458216  0.55413782  0.57467044     0.83900
C824        C  0.14774973  0.65795183  0.47356213     0.90100
C825        C  0.12047785  0.20087960  0.63149944     0.85800
C826        C  0.14303711  0.17120018  0.64422184    -0.54400
C827        C  0.13121689  0.15357235  0.34350722     0.08700
C828        C  0.09753840  0.16795438  0.36282208     0.19700
C829        C  0.08538324  0.18513082  0.62670284    -0.55100
C830        C  0.07207484  0.16692680  0.32399266     0.08800
C831        C  0.11800072  0.22256996  0.67188468    -0.54700
C832        C  0.10541156  0.20602294  0.36928254     0.09400
H833        H  0.16580093  0.16423718  0.62657978     0.13900
H834        H  0.08852401  0.15506128  0.39229974    -0.00300
H835        H  0.07084427  0.18494980  0.59708908     0.14200
H836        H  0.12200030  0.24809592  0.33272987     0.14000
O837        O  0.17110479  0.40929901  0.46089328    -0.73600
O838        O  0.16564718  0.33948821  0.55114366    -0.74600
O839        O  0.15889834  0.33719695  0.46342113    -0.63200
O840        O  0.17400247  0.41008427  0.55617992    -0.71600
O841        O  0.11794896  0.41567332  0.55908736    -0.71200
O842        O  0.10377524  0.34816654  0.46541454    -0.62400
O843        O  0.10944412  0.34491298  0.55277881    -0.74900
O844        O  0.11553849  0.41845750  0.46507507    -0.73700
Cu845      Cu  0.16953883  0.37448604  0.50758470     1.04600
Cu846      Cu  0.10994768  0.38277556  0.51082995     1.04300
C847        C  0.14430577  0.42372685  0.44695793     0.92600
C848        C  0.13645262  0.32801027  0.56054958     0.91700
C849        C  0.12803743  0.32885479  0.45434579     0.83900
C850        C  0.14733985  0.42211100  0.57465440     0.90100
O851        O  0.12160460  0.45501658  0.63046773    -0.73600
O852        O  0.12410200  0.52793853  0.39227111    -0.74600
O853        O  0.12579210  0.52447581  0.62945845    -0.63200
O854        O  0.11913008  0.45772483  0.39292839    -0.71600
O855        O  0.17545196  0.45393840  0.39324507    -0.71200
O856        O  0.18216629  0.52188566  0.63037707    -0.62400
O857        O  0.18041333  0.52514150  0.39267041    -0.74900
O858        O  0.17790660  0.45148951  0.63139135    -0.73700
Cu859      Cu  0.11981283  0.49174253  0.34557968     1.04600
Cu860      Cu  0.18001373  0.48847835  0.34540159     1.04300
C861        C  0.14929374  0.44369279  0.61413280     0.92600
C862        C  0.15275687  0.53685717  0.40867049     0.91700
C863        C  0.15447868  0.53236203  0.61315484     0.83900
C864        C  0.14649068  0.44616566  0.40932044     0.90100
O865        O  0.18259758  0.02999664  0.63045397    -0.73600
O866        O  0.16205475  0.95820871  0.54218048    -0.74600
O867        O  0.15463648  0.02950930  0.54783447    -0.63200
O868        O  0.19157994  0.95877074  0.62556082    -0.71600
O869        O  0.14340810  0.94486140  0.32332652    -0.71200
O870        O  0.10398354  0.01868506  0.24859652    -0.62400
O871        O  0.11259863  0.94889931  0.24201660    -0.74900
O872        O  0.13436572  0.01780591  0.33173603    -0.73700
Cu873      Cu  0.17464017  0.99438664  0.58586877     1.04600
Cu874      Cu  0.12190421  0.98246334  0.28784066     1.04300
C875        C  0.16096853  0.03553540  0.32590846     0.92600
C876        C  0.13382227  0.94018817  0.21287843     0.91700
C877        C  0.12169292  0.03279214  0.21918512     0.83900
C878        C  0.17442809  0.93731111  0.31570184     0.90100
O879        O  0.02066315  0.15219299  0.54886050    -0.73600
O880        O  0.94698986  0.15939732  0.63865048    -0.74600
O881        O  0.01765199  0.17446912  0.63645553    -0.63200
O882        O  0.94950575  0.13866573  0.55260751    -0.71600
O883        O  0.95744033  0.08195830  0.24609429    -0.71200
O884        O  0.03180975  0.12082584  0.32307165    -0.62400
O885        O  0.95865241  0.10655500  0.33190017    -0.74900
O886        O  0.02727632  0.09489785  0.23845848    -0.73700
Cu887      Cu  0.98335924  0.15809024  0.59378005     1.04600
Cu888      Cu  0.99416860  0.09930850  0.28609728     1.04300
C889        C  0.03293290  0.11728235  0.21001871     0.92600
C890        C  0.93962773  0.13248216  0.32980147     0.91700
C891        C  0.03759086  0.15224595  0.31820930     0.83900
C892        C  0.94052074  0.10067591  0.22029956     0.90100
O893        O  0.97588384  0.80991648  0.55733417    -0.73600
O894        O  0.05124255  0.78975999  0.64227946    -0.74600
O895        O  0.97980277  0.77757313  0.63931826    -0.63200
O896        O  0.04686949  0.81850071  0.56082575    -0.71600
O897        O  0.04339431  0.86211220  0.26413611    -0.71200
O898        O  0.96732452  0.82571674  0.33937321    -0.62400
O899        O  0.04072834  0.83374246  0.34791428    -0.74900
O900        O  0.97277178  0.85663917  0.25832403    -0.73700
Cu901      Cu  0.01366167  0.79696840  0.59940461     1.04600
Cu902      Cu  0.00589362  0.84624321  0.30398759     1.04300
C903        C  0.96381964  0.83659278  0.22793383     0.92600
C904        C  0.05901638  0.80791364  0.34073707     0.91700
C905        C  0.96087788  0.79453166  0.33275294     0.83900
C906        C  0.05587341  0.84415308  0.23329486     0.90100
O907        O  0.82749976  0.00278492  0.56786050    -0.73600
O908        O  0.81731775  0.92450211  0.64768178    -0.74600
O909        O  0.80027460  0.99446597  0.65163235    -0.63200
O910        O  0.84353196  0.93372138  0.56538322    -0.71600
O911        O  0.89130594  0.94154614  0.26242088    -0.71200
O912        O  0.84740434  0.00735569  0.34526088    -0.62400
O913        O  0.86476685  0.93574646  0.34716789    -0.74900
O914        O  0.87370981  0.00954194  0.26123505    -0.73700
Cu915      Cu  0.82024518  0.96348172  0.60764969     1.04600
Cu916      Cu  0.87099360  0.97388941  0.30536208     1.04300
C917        C  0.85123978  0.01448374  0.23205944     0.92600
C918        C  0.83964802  0.91567821  0.34200821     0.91700
C919        C  0.81561948  0.01204197  0.33950460     0.83900
C920        C  0.87429088  0.92547560  0.23352408     0.90100
C921        C  0.88107104  0.87204557  0.53924422    -0.27000
C922        C  0.89242411  0.90164005  0.20537979    -0.15100
C923        C  0.92517284  0.90956555  0.19046862     0.35600
C924        C  0.94850095  0.88350386  0.18330401    -0.26400
C925        C  0.94011472  0.85057481  0.19567848    -0.15700
C926        C  0.90438390  0.84584070  0.53368235     0.36600
N927        N  0.89287643  0.81204390  0.53845446    -0.89900
H928        H  0.85530492  0.86617367  0.54910103     0.17800
H929        H  0.97493060  0.89009230  0.17799735     0.17800
N930        N  0.93572543  0.94397544  0.18706990    -0.89000
H931        H  0.90521384  0.79760170  0.22757309     0.35100
H932        H  0.90026149  0.79863368  0.51082250     0.40200
H933        H  0.94400089  0.94784928  0.15546799     0.39800
H934        H  0.95647405  0.94784582  0.20778325     0.34700
C935        C  0.88268448  0.10316500  0.54295417    -0.27000
C936        C  0.91186700  0.08593111  0.19639163    -0.15100
C937        C  0.91547705  0.05450415  0.17522979     0.35600
C938        C  0.88806771  0.03210390  0.17541356    -0.26400
C939        C  0.85910950  0.03984294  0.19981048    -0.15700
C940        C  0.85746081  0.07894397  0.54948112     0.36600
N941        N  0.82745995  0.08840963  0.57258277    -0.89900
H942        H  0.87923136  0.12807569  0.55693262     0.17800
H943        H  0.89242238  0.00632048  0.16495628     0.17800
N944        N  0.94751958  0.04317859  0.15827015    -0.89000
H945        H  0.82746015  0.07554370  0.60181105     0.35100
H946        H  0.80634880  0.08054199  0.55454761     0.40200
H947        H  0.96547780  0.06256580  0.15961255     0.39800
H948        H  0.94386513  0.03773269  0.12548040     0.34700
C949        C  0.05741310  0.08568059  0.49377125    -0.27000
C950        C  0.05842972  0.10894385  0.17698906    -0.15100
C951        C  0.09211243  0.11800418  0.18734539     0.35600
C952        C  0.11559627  0.09227493  0.19667308    -0.26400
C953        C  0.10551677  0.05850170  0.19226879    -0.15700
C954        C  0.07946408  0.05897505  0.50284324     0.36600
N955        N  0.07026427  0.02529568  0.49095917    -0.89900
H956        H  0.03249105  0.07983061  0.48058060     0.17800
H957        H  0.13984083  0.09844790  0.21155313     0.17800
N958        N  0.10063458  0.15276311  0.19403651    -0.89000
H959        H  0.06196051  0.01373431  0.12823994     0.35100
H960        H  0.04257203  0.01239678  0.17686558     0.40200
H961        H  0.10363972  0.17214176  0.50535477     0.39800
H962        H  0.13104441  0.16091038  0.54419792     0.34700
C963        C  0.13737667  0.88057508  0.19672096    -0.27000
C964        C  0.12385734  0.91186029  0.18502755    -0.15100
C965        C  0.08748077  0.91867253  0.50183521     0.35600
C966        C  0.06553073  0.89303670  0.51466028    -0.26400
C967        C  0.07992762  0.85953782  0.20346693    -0.15700
C968        C  0.11537242  0.85398451  0.20673522     0.36600
N969        N  0.12946395  0.82357676  0.22397722    -0.89900
H970        H  0.16398051  0.87848776  0.20529099     0.17800
H971        H  0.03830543  0.89644478  0.51113896     0.17800
N972        N  0.07393231  0.94874997  0.48350913    -0.89000
H973        H  0.14409364  0.81947021  0.53171723     0.35100
H974        H  0.10998794  0.81193100  0.56179963     0.40200
H975        H  0.05713645  0.95148318  0.17118576     0.39800
H976        H  0.06692526  0.93740944  0.12117657     0.34700
C977        C  0.10581949  0.23873419  0.56959503    -0.27000
C978        C  0.13153412  0.22403424  0.59509176    -0.15100
C979        C  0.16227951  0.24223441  0.60039778     0.35600
C980        C  0.16302835  0.27659719  0.59037558    -0.26400
C981        C  0.13418621  0.29265539  0.57344344    -0.15700
C982        C  0.10616999  0.27292008  0.56051483     0.36600
N983        N  0.07774239  0.28730794  0.53820371    -0.89900
H984        H  0.08328891  0.22529970  0.55975652     0.17800
H985        H  0.18592403  0.29102887  0.59685694     0.17800
N986        N  0.19119495  0.22678506  0.62039926    -0.89000
H987        H  0.05597501  0.28355025  0.55686819     0.35100
H988        H  0.07441624  0.27411715  0.50913088     0.40200
H989        H  0.21090814  0.24422080  0.62471688     0.39800
H990        H  0.20026814  0.20861660  0.59868645     0.34700
C991        C  0.07952141  0.25239779  0.40883073    -0.27000
C992        C  0.10503739  0.22777720  0.40827425    -0.15100
C993        C  0.13688252  0.23580735  0.42681429     0.35600
C994        C  0.14395013  0.26898781  0.44048823    -0.26400
C995        C  0.11962215  0.29469310  0.43658573    -0.15700
C996        C  0.08642377  0.28560830  0.42185295     0.36600
N997        N  0.05940374  0.30955677  0.41770920    -0.89900
H998        H  0.05519914  0.24687778  0.39367897     0.17800
H999        H  0.16878187  0.27475062  0.45395732     0.17800
N1000       N  0.16285107  0.21056839  0.42837267    -0.89000
H1001       H  0.06779129  0.32957958  0.39883532     0.35100
H1002       H  0.05242093  0.31829314  0.44833892     0.40200
H1003       H  0.15460461  0.19325539  0.45116006     0.39800
H1004       H  0.18560794  0.22070072  0.44032503     0.34700
C1005       C  0.11152282  0.70938391  0.47773879    -0.27000
C1006       C  0.14410784  0.69543589  0.47188000    -0.15100
C1007       C  0.17214509  0.71797470  0.47281579     0.35600
C1008       C  0.16636866  0.75314816  0.47150672    -0.26400
C1009       C  0.13316194  0.76568255  0.46415699    -0.15700
C1010       C  0.10636609  0.74429489  0.47688348     0.36600
N1011       N  0.07356526  0.75773931  0.48705930    -0.89900
H1012       H  0.08974285  0.69328955  0.48324076     0.17800
H1013       H  0.18804785  0.76945036  0.46626280     0.17800
N1014       N  0.20632910  0.70557033  0.47278013    -0.89000
H1015       H  0.06794121  0.75152990  0.51894857     0.35100
H1016       H  0.05554531  0.74592669  0.46708801     0.40200
H1017       H  0.21878529  0.71552777  0.49992390     0.39800
H1018       H  0.21852157  0.71467639  0.44528827     0.34700
C1019       C  0.17452456  0.69538386  0.61686951    -0.27000
C1020       C  0.14516719  0.68013535  0.59974613    -0.15100
C1021       C  0.11405926  0.69812728  0.60061211     0.35600
C1022       C  0.11278863  0.73000911  0.61985698    -0.26400
C1023       C  0.14146672  0.74391055  0.63980992    -0.15700
C1024       C  0.17293137  0.72669256  0.63765458     0.36600
N1025       N  0.20325133  0.73938341  0.65825242    -0.89900
H1026       H  0.19877722  0.68247000  0.61542686     0.17800
H1027       H  0.08844528  0.74239478  0.62267137     0.17800
N1028       N  0.08336048  0.68396597  0.58308750    -0.89000
H1029       H  0.20827004  0.71704322  0.35639995     0.35100
H1030       H  0.20036465  0.75733295  0.34342511     0.40200
H1031       H  0.07378228  0.70042008  0.55995598     0.39800
H1032       H  0.06550606  0.68244956  0.60795555     0.34700
C1033       C  0.23314361  0.06896376  0.45685950    -0.27000
C1034       C  0.21029694  0.09637896  0.45473478    -0.15100
C1035       C  0.22257507  0.12725769  0.47181014     0.35600
C1036       C  0.25799685  0.13302985  0.47411409    -0.26400
C1037       C  0.28136304  0.10745496  0.46317607    -0.15700
C1038       C  0.26845543  0.07447033  0.45713071     0.36600
N1039       N  0.29080043  0.04655679  0.44947643    -0.89900
H1040       H  0.22453000  0.04376324  0.44911563     0.17800
H1041       H  0.26722175  0.15758496  0.48422915     0.17800
N1042       N  0.19910116  0.15337640  0.48330204    -0.89000
H1043       H  0.28472160  0.03598650  0.41937067     0.35100
H1044       H  0.28615326  0.02842873  0.47299744     0.40200
H1045       H  0.21100340  0.17383340  0.83347097     0.39800
H1046       H  0.18413002  0.14317594  0.84771044     0.34700
C1047       C  0.24617148  0.08792846  0.61801046    -0.27000
C1048       C  0.23591225  0.11586851  0.64232583    -0.15100
C1049       C  0.25710558  0.14443098  0.64528599     0.35600
C1050       C  0.28796946  0.14464960  0.62297483    -0.26400
C1051       C  0.29873290  0.11626912  0.59939382    -0.15700
C1052       C  0.27763474  0.08742761  0.59708677     0.36600
N1053       N  0.28817309  0.05761835  0.57403699    -0.89900
H1054       H  0.23073543  0.06553689  0.61769403     0.17800
H1055       H  0.30408341  0.16677271  0.62488919     0.17800
N1056       N  0.24815672  0.17204090  0.67340913    -0.89000
H1057       H  0.27023251  0.03835497  0.57720574     0.35100
H1058       H  0.28875650  0.06346909  0.54129300     0.40200
H1059       H  0.22000105  0.18146754  0.32497953     0.39800
H1060       H  0.26613473  0.19136649  0.67151819     0.34700
C1061       C  0.73055793  0.13210387  0.61674712    -0.27000
C1062       C  0.73450898  0.10073974  0.63632716    -0.15100
C1063       C  0.70626875  0.07825297  0.63764782     0.35600
C1064       C  0.67545942  0.08748347  0.61991871    -0.26400
C1065       C  0.67152693  0.11842572  0.59988747    -0.15700
C1066       C  0.69935847  0.14127169  0.59867471     0.36600
N1067       N  0.69701356  0.17378272  0.57933905    -0.89900
H1068       H  0.75110460  0.15019747  0.61667836     0.17800
H1069       H  0.65447361  0.06977850  0.62142226     0.17800
N1070       N  0.70819521  0.04649863  0.65929452    -0.89000
H1071       H  0.67790734  0.18752488  0.59499173     0.35100
H1072       H  0.69077518  0.17080589  0.54678796     0.40200
H1073       H  0.70198866  0.02741887  0.63712425     0.39800
H1074       H  0.69010665  0.04633230  0.68400595     0.34700
C1075       C  0.70030923  0.07049062  0.46522514    -0.27000
C1076       C  0.69064944  0.10480904  0.46435796    -0.15100
C1077       C  0.71709485  0.12916932  0.46506085     0.35600
C1078       C  0.75145512  0.11854448  0.46234424    -0.26400
C1079       C  0.75926022  0.08504965  0.45055618    -0.15700
C1080       C  0.73448032  0.06050203  0.45937187     0.36600
N1081       N  0.74308956  0.02554808  0.45425310    -0.89900
H1082       H  0.68106428  0.05116089  0.46842621     0.17800
H1083       H  0.77098849  0.13746310  0.45810877     0.17800
N1084       N  0.70923096  0.16448082  0.46560708    -0.89000
H1085       H  0.72181534  0.01038928  0.45976136     0.35100
H1086       H  0.76089070  0.01976337  0.47822077     0.40200
H1087       H  0.69735126  0.16998493  0.43624960     0.39800
H1088       H  0.73151256  0.17887084  0.46677526     0.34700
C1089       C  0.29759858  0.82042401  0.58997312    -0.27000
C1090       C  0.31266977  0.85034949  0.57537956    -0.15100
C1091       C  0.29136205  0.87587284  0.55891843     0.35600
C1092       C  0.25610721  0.87203033  0.56147382    -0.26400
C1093       C  0.24177339  0.84644063  0.58673556    -0.15700
C1094       C  0.26214511  0.81776329  0.59426272     0.36600
N1095       N  0.24725789  0.78775796  0.61130400    -0.89900
H1096       H  0.31347860  0.79919495  0.59846513     0.17800
H1097       H  0.24054737  0.89185009  0.54853551     0.17800
N1098       N  0.30531631  0.90542729  0.53910156    -0.89000
H1099       H  0.26591335  0.76955419  0.61689791     0.35100
H1100       H  0.23115237  0.77784114  0.58740901     0.40200
H1101       H  0.31652921  0.91996674  0.56363261     0.39800
H1102       H  0.28609634  0.92034342  0.52583656     0.34700
C1103       C  0.25622184  0.84465836  0.42601206    -0.27000
C1104       C  0.25000117  0.87473231  0.40401281    -0.15100
C1105       C  0.27518406  0.90000085  0.40409610     0.35600
C1106       C  0.30718939  0.89339403  0.42242145    -0.26400
C1107       C  0.31484827  0.86183077  0.44026437    -0.15700
C1108       C  0.28835970  0.83781792  0.44408912     0.36600
N1109       N  0.29421098  0.80629314  0.46526253    -0.89900
H1110       H  0.23706473  0.82500086  0.42507663     0.17800
H1111       H  0.32671058  0.91262364  0.42108943     0.17800
N1112       N  0.26891121  0.93138665  0.38264973    -0.89000
H1113       H  0.27234519  0.79127441  0.46416705     0.35100
H1114       H  0.29874875  0.81157259  0.49786926     0.40200
H1115       H  0.26662545  0.92650473  0.34953365     0.39800
H1116       H  0.28973861  0.94757573  0.38633564     0.34700
C1117       C  0.74068931  0.82213719  0.48221011    -0.27000
C1118       C  0.72009690  0.85002088  0.47201965    -0.15100
C1119       C  0.73603679  0.88208718  0.47058261     0.35600
C1120       C  0.77176783  0.88414583  0.47280027    -0.26400
C1121       C  0.79178542  0.85486306  0.46799386    -0.15700
C1122       C  0.77642029  0.82481208  0.48203665     0.36600
N1123       N  0.79681405  0.79605435  0.49143166    -0.89900
H1124       H  0.72925341  0.79803528  0.48947757     0.17800
H1125       H  0.78335760  0.90861216  0.46918150     0.17800
N1126       N  0.71637145  0.91230619  0.46534793    -0.89000
H1127       H  0.79154994  0.78881477  0.52309389     0.35100
H1128       H  0.78890171  0.77662019  0.47078548     0.40200
H1129       H  0.70565051  0.91142621  0.43440278     0.39800
H1130       H  0.73199071  0.93362930  0.46636018     0.34700
C1131       C  0.75179917  0.87423218  0.63471320    -0.27000
C1132       C  0.76723659  0.84391959  0.64626543    -0.15100
C1133       C  0.75126361  0.81332699  0.63570817     0.35600
C1134       C  0.72020599  0.81347289  0.61346012    -0.26400
C1135       C  0.70419909  0.84392008  0.60243627    -0.15700
C1136       C  0.72062710  0.87476242  0.61276789     0.36600
N1137       N  0.70559446  0.90658261  0.60181857    -0.89900
H1138       H  0.76256164  0.89771682  0.64598135     0.17800
H1139       H  0.70842047  0.78954436  0.60540504     0.17800
N1140       N  0.76846265  0.78218960  0.31090313    -0.89000
H1141       H  0.72196078  0.92650744  0.60966481     0.35100
H1142       H  0.68399515  0.90971968  0.62107778     0.40200
H1143       H  0.77321393  0.76940490  0.28186502     0.39800
H1144       H  0.75137924  0.76776983  0.32876552     0.34700
C1145       C  0.91673722  0.20384629  0.46147391    -0.27000
C1146       C  0.88642125  0.18474394  0.45985118    -0.15100
C1147       C  0.85700401  0.20061597  0.47672503     0.35600
C1148       C  0.85598177  0.23594895  0.48086239    -0.26400
C1149       C  0.88458064  0.25582109  0.47108627    -0.15700
C1150       C  0.91584451  0.23909835  0.46398195     0.36600
N1151       N  0.94682844  0.25757687  0.45832261    -0.89900
H1152       H  0.94088585  0.19246994  0.45355830     0.17800
H1153       H  0.83251957  0.24775360  0.49127611     0.17800
N1154       N  0.82700506  0.18139665  0.48512192    -0.89000
H1155       H  0.95685194  0.25125642  0.42807429     0.35100
H1156       H  0.96416392  0.24987849  0.48192857     0.40200
H1157       H  0.80736231  0.19058785  0.46568807     0.39800
H1158       H  0.82025698  0.18545060  0.51739286     0.34700
C1159       C  0.88664767  0.20719330  0.61151901    -0.27000
C1160       C  0.86107107  0.20377971  0.64234162    -0.15100
C1161       C  0.83786655  0.23036636  0.64873813     0.35600
C1162       C  0.84428624  0.26162527  0.62989530    -0.26400
C1163       C  0.87347943  0.26673905  0.60476843    -0.15700
C1164       C  0.89429275  0.23880720  0.59415734     0.36600
N1165       N  0.92291997  0.24242196  0.56580390    -0.89900
H1166       H  0.90224988  0.18586613  0.60337068     0.17800
H1167       H  0.82691422  0.28232507  0.63582120     0.17800
N1168       N  0.80910205  0.22586035  0.67665094    -0.89000
H1169       H  0.93416149  0.21902657  0.55947262     0.35100
H1170       H  0.94128900  0.25671399  0.58219003     0.40200
H1171       H  0.79356409  0.20735583  0.66258534     0.39800
H1172       H  0.79459997  0.24788928  0.67835561     0.34700
C1173       C  0.83622964  0.70498795  0.61322993    -0.27000
C1174       C  0.86345316  0.72645452  0.60262526    -0.15100
C1175       C  0.88611694  0.71450978  0.57078748     0.35600
C1176       C  0.89090655  0.67994564  0.56610639    -0.26400
C1177       C  0.86996921  0.65733687  0.58803625    -0.15700
C1178       C  0.84038756  0.66989174  0.60861078     0.36600
N1179       N  0.81582910  0.64719650  0.62654972    -0.89900
H1180       H  0.81621396  0.71444983  0.63405698     0.17800
H1181       H  0.91007052  0.67083471  0.54376455     0.17800
N1182       N  0.90304163  0.73699421  0.54216795    -0.89000
H1183       H  0.79576384  0.66059886  0.64064444     0.35100
H1184       H  0.82785450  0.63410470  0.65141311     0.40200
H1185       H  0.89430185  0.73183000  0.51093429     0.39800
H1186       H  0.92907889  0.73156705  0.54255268     0.34700
C1187       C  0.86010009  0.67513097  0.45100956    -0.27000
C1188       C  0.88822832  0.65342623  0.45043059    -0.15100
C1189       C  0.92006348  0.66621238  0.43623594     0.35600
C1190       C  0.92238568  0.69960451  0.42157431    -0.26400
C1191       C  0.89355466  0.72022001  0.41904421    -0.15700
C1192       C  0.86253138  0.70807728  0.43541883     0.36600
N1193       N  0.83266391  0.72852173  0.43315692    -0.89900
H1194       H  0.83584660  0.66648189  0.46321602     0.17800
H1195       H  0.94591545  0.70823861  0.40722181     0.17800
N1196       N  0.94969726  0.64499933  0.43500189    -0.89000
H1197       H  0.82280939  0.73025586  0.46438030     0.35100
H1198       H  0.81475627  0.71597404  0.41379187     0.40200
H1199       H  0.97095143  0.65838481  0.42438217     0.39800
H1200       H  0.94516707  0.62602204  0.41202707     0.34700
C1201       C  0.87776896  0.74686350  0.97721127     0.85800
C1202       C  0.85716141  0.77862701  0.98687775    -0.54400
C1203       C  0.86735324  0.79659988  0.68795760     0.08700
C1204       C  0.90013540  0.78112012  0.70826254     0.19700
C1205       C  0.91414847  0.75912843  0.97200765    -0.55100
C1206       C  0.92554756  0.77928381  0.66984466     0.08800
C1207       C  0.87936499  0.72787638  0.01951503    -0.54700
C1208       C  0.89039535  0.74364913  0.71619046     0.09400
H1209       H  0.83449912  0.78522516  0.96881274     0.13900
H1210       H  0.90991504  0.79473470  0.73723515    -0.00300
H1211       H  0.92932705  0.75399160  0.94393216     0.14200
H1212       H  0.87275243  0.70091785  0.68106910     0.14000
O1213       O  0.90728753  0.53604967  0.90967894    -0.73600
O1214       O  0.91204882  0.60656647  0.81949673    -0.74600
O1215       O  0.90331733  0.60735718  0.90707109    -0.63200
O1216       O  0.91210986  0.53503750  0.81500535    -0.71600
O1217       O  0.85581278  0.53559933  0.81005362    -0.71200
O1218       O  0.84691316  0.60348593  0.90303874    -0.62400
O1219       O  0.85582372  0.60832061  0.81518912    -0.74900
O1220       O  0.85105645  0.53329942  0.90488470    -0.73700
Cu1221     Cu  0.91063065  0.57059662  0.86315728     1.04600
Cu1222     Cu  0.85045212  0.56939002  0.85782239     1.04300
C1223       C  0.87893713  0.52545063  0.92412378     0.92600
C1224       C  0.88509319  0.62126030  0.80690893     0.91700
C1225       C  0.87354120  0.61918498  0.91459740     0.83900
C1226       C  0.88458158  0.52568467  0.79595720     0.90100
C1227       C  0.88301928  0.16638277  0.75195757     0.85800
C1228       C  0.85551236  0.13871215  0.74978755    -0.54400
C1229       C  0.85009632  0.12534996  0.04000069     0.08700
C1230       C  0.87446289  0.14100088  0.00638905     0.19700
C1231       C  0.91468007  0.14919631  0.73281792    -0.55100
C1232       C  0.91055295  0.13617359  0.02565818     0.08800
C1233       C  0.87183262  0.19199444  0.71799026    -0.54700
C1234       C  0.86783231  0.17889566  0.00991565     0.09400
H1235       H  0.84031846  0.13094470  0.77709544     0.13900
H1236       H  0.87138553  0.13077641  0.97307879    -0.00300
H1237       H  0.93944712  0.14876357  0.74832975     0.14200
H1238       H  0.87019098  0.21779991  0.05726122     0.14000
O1239       O  0.85262531  0.38595285  0.90481710    -0.73600
O1240       O  0.85598885  0.30889721  0.81896346    -0.74600
O1241       O  0.85058291  0.31516910  0.90591027    -0.63200
O1242       O  0.85636511  0.38135134  0.80985845    -0.71600
O1243       O  0.91262872  0.38260132  0.81413152    -0.71200
O1244       O  0.90693174  0.31191267  0.90812266    -0.62400
O1245       O  0.91233137  0.31087611  0.82061997    -0.74900
O1246       O  0.90892364  0.38380587  0.90926987    -0.73700
Cu1247     Cu  0.85198471  0.34864922  0.85935308     1.04600
Cu1248     Cu  0.91217056  0.34804992  0.86310228     1.04300
C1249       C  0.88044716  0.39443166  0.92370923     0.92600
C1250       C  0.88490103  0.29477359  0.81297482     0.91700
C1251       C  0.87759863  0.30024112  0.91797267     0.83900
C1252       C  0.88497364  0.39138765  0.79518483     0.90100
O1253       O  0.85204523  0.42523994  0.98002453    -0.73600
O1254       O  0.85673309  0.49345686  0.74107670    -0.74600
O1255       O  0.85130848  0.49507222  0.98087084    -0.63200
O1256       O  0.85698739  0.42300770  0.74002013    -0.71600
O1257       O  0.91337412  0.42335040  0.73972565    -0.71200
O1258       O  0.90772676  0.49539498  0.98004295    -0.62400
O1259       O  0.91317292  0.49401117  0.74051674    -0.74900
O1260       O  0.90849281  0.42544035  0.97967921    -0.73700
Cu1261     Cu  0.85358391  0.45851564  0.69335511     1.02600
Cu1262     Cu  0.91385399  0.45903194  0.69238986     1.04300
C1263       C  0.88018643  0.41604829  0.96293006     0.92600
C1264       C  0.88505105  0.50342038  0.75734992     0.91700
C1265       C  0.87919694  0.50438072  0.96353509     0.83900
C1266       C  0.88531962  0.41344275  0.75637733     0.90100
C1267       C  0.80873108  0.85265019  0.75660580     0.85800
C1268       C  0.83677578  0.82622850  0.74805102    -0.54400
C1269       C  0.84890161  0.82608950  0.03834745     0.08700
C1270       C  0.83115072  0.85180514  0.00818327     0.19700
C1271       C  0.82506499  0.88630121  0.74270852    -0.55100
C1272       C  0.83527901  0.88638424  0.03105322     0.08800
C1273       C  0.78155688  0.84543838  0.72195566    -0.54700
C1274       C  0.79326107  0.84375626  0.01214569     0.09400
H1275       H  0.84552275  0.80826700  0.77176288     0.13900
H1276       H  0.84034129  0.85136481  0.97428237    -0.00300
H1277       H  0.82538880  0.90906465  0.76231784     0.14200
H1278       H  0.75527056  0.84086825  0.05998490     0.14000
O1279       O  0.59031251  0.86765636  0.80023991    -0.73600
O1280       O  0.65765049  0.86829250  0.89790052    -0.74600
O1281       O  0.66210667  0.87130113  0.81077077    -0.63200
O1282       O  0.58637746  0.86567486  0.89418097    -0.71600
O1283       O  0.58799096  0.80984207  0.89271610    -0.71200
O1284       O  0.66665905  0.81578378  0.80976989    -0.62400
O1285       O  0.65993869  0.81261001  0.89680134    -0.74900
O1286       O  0.59322584  0.81196927  0.79718848    -0.73700
Cu1287     Cu  0.62328148  0.86995933  0.85055417     1.04600
Cu1288     Cu  0.62624492  0.81043869  0.84850720     1.04300
C1289       C  0.58241964  0.83979878  0.78166248     0.92600
C1290       C  0.67169963  0.84092985  0.90984921     0.91700
C1291       C  0.68016993  0.84496639  0.80601960     0.83900
C1292       C  0.57759301  0.83743018  0.90994300     0.90100
C1293       C  0.21941718  0.85780796  0.95412749     0.85800
C1294       C  0.19196533  0.83391473  0.97058014    -0.54400
C1295       C  0.17605106  0.84608785  0.67767338     0.08700
C1296       C  0.18882275  0.88132832  0.69379012     0.19700
C1297       C  0.20063278  0.89091483  0.94907305    -0.55100
C1298       C  0.18552465  0.90448434  0.65332806     0.08800
C1299       C  0.24316354  0.86368710  0.99245593    -0.54700
C1300       C  0.22768958  0.87619536  0.69877595     0.09400
H1301       H  0.18559842  0.81037211  0.95443712     0.13900
H1302       H  0.17612558  0.89097028  0.72339159    -0.00300
H1303       H  0.19879755  0.90428286  0.91891953     0.14200
H1304       H  0.27018516  0.86047337  0.66129608     0.14000
O1305       O  0.43445502  0.82216681  0.79636788    -0.73600
O1306       O  0.36306354  0.82366396  0.88602369    -0.74600
O1307       O  0.36148347  0.82920128  0.79840890    -0.63200
O1308       O  0.43463707  0.81948516  0.89125378    -0.71600
O1309       O  0.43719952  0.87513771  0.89553898    -0.71200
O1310       O  0.36790453  0.88455968  0.80083854    -0.62400
O1311       O  0.36446226  0.87947819  0.88805569    -0.74900
O1312       O  0.44028192  0.87764667  0.80025702    -0.73700
Cu1313     Cu  0.39904438  0.82173049  0.84276392     1.04600
Cu1314     Cu  0.40343839  0.88111609  0.84650793     1.04300
C1315       C  0.44725547  0.84933179  0.78201960     0.92600
C1316       C  0.34884947  0.85167710  0.89443735     0.91700
C1317       C  0.35045268  0.85878506  0.78971074     0.83900
C1318       C  0.44526697  0.84630432  0.91045694     0.90100
O1319       O  0.54565500  0.81033755  0.96584949    -0.73600
O1320       O  0.47742684  0.81864132  0.72746540    -0.74600
O1321       O  0.47487937  0.81597678  0.96636756    -0.63200
O1322       O  0.54870094  0.81270113  0.72623629    -0.71600
O1323       O  0.55193756  0.86843057  0.72593990    -0.71200
O1324       O  0.47841143  0.87167240  0.96734348    -0.62400
O1325       O  0.48122212  0.87436080  0.72697670    -0.74900
O1326       O  0.54872063  0.86611374  0.96645505    -0.73700
Cu1327     Cu  0.51208669  0.81270579  0.67939214     1.04600
Cu1328     Cu  0.51588268  0.87226035  0.67916728     1.04300
C1329       C  0.55627089  0.83771083  0.94916108     0.92600
C1330       C  0.46969894  0.84744422  0.74374634     0.91700
C1331       C  0.46703972  0.84446448  0.95000263     0.83900
C1332       C  0.56025965  0.84019614  0.74255269     0.90100
C1333       C  0.76386392  0.09505919  0.99664043     0.85800
C1334       C  0.79721632  0.11549019  0.99733153    -0.54400
C1335       C  0.81994248  0.10528606  0.69779391     0.08700
C1336       C  0.80843063  0.07374090  0.72350116     0.19700
C1337       C  0.77516302  0.05915599  0.98920900    -0.55100
C1338       C  0.80034894  0.04685432  0.68756832     0.08800
C1339       C  0.75147259  0.09705929  0.04228714    -0.54700
C1340       C  0.77301768  0.08442119  0.74130702     0.09400
H1341       H  0.80178398  0.13761013  0.97795425     0.13900
H1342       H  0.82680535  0.06545857  0.74854219    -0.00300
H1343       H  0.76713757  0.04527642  0.96045159     0.14200
H1344       H  0.72557998  0.10288512  0.71732285     0.14000
O1345       O  0.55666029  0.10765973  0.88637909    -0.73600
O1346       O  0.63253579  0.09393446  0.80450299    -0.74600
O1347       O  0.62639565  0.10045760  0.89127994    -0.63200
O1348       O  0.56100475  0.10401286  0.79345272    -0.71600
O1349       O  0.56952805  0.15911192  0.79012572    -0.71200
O1350       O  0.63299298  0.15595765  0.89131674    -0.62400
O1351       O  0.64389921  0.14845595  0.80524237    -0.74900
O1352       O  0.56255749  0.16318258  0.88555198    -0.73700
Cu1353     Cu  0.59329621  0.09990645  0.84356482     1.04600
Cu1354     Cu  0.60177701  0.15892637  0.84207050     1.04300
C1355       C  0.55026794  0.13651694  0.90274669     0.92600
C1356       C  0.65387533  0.11782834  0.80024612     0.91700
C1357       C  0.64164781  0.12707117  0.90455248     0.83900
C1358       C  0.55536051  0.13228599  0.77543976     0.90100
C1359       C  0.19136924  0.09838600  0.74810588     0.85800
C1360       C  0.16218745  0.12387394  0.74055159    -0.54400
C1361       C  0.15130792  0.12596585  0.02966883     0.08700
C1362       C  0.17013080  0.10090380  0.99975122     0.19700
C1363       C  0.17718525  0.06498018  0.72962065    -0.55100
C1364       C  0.16594207  0.06612786  0.02064289     0.08800
C1365       C  0.21903796  0.10909014  0.71627640    -0.54700
C1366       C  0.20738173  0.10987368  0.00629640     0.09400
H1367       H  0.15151360  0.13977859  0.76558017     0.13900
H1368       H  0.16204851  0.10154802  0.96534767    -0.00300
H1369       H  0.17625169  0.04151144  0.74719881     0.14200
H1370       H  0.24401815  0.11346951  0.05580167     0.14000
O1371       O  0.40982936  0.10096112  0.79564122    -0.73600
O1372       O  0.34362766  0.09520495  0.89433347    -0.74600
O1373       O  0.33809332  0.09051649  0.80686665    -0.63200
O1374       O  0.41398394  0.10415797  0.88942750    -0.71600
O1375       O  0.40741548  0.15963392  0.88860723    -0.71200
O1376       O  0.32836125  0.14541736  0.80636406    -0.62400
O1377       O  0.33659524  0.15060755  0.89322591    -0.74900
O1378       O  0.40178874  0.15610602  0.79335920    -0.73700
Cu1379     Cu  0.37732324  0.09602392  0.84626340     1.04600
Cu1380     Cu  0.36899206  0.15505881  0.84470295     1.04300
C1381       C  0.41558608  0.12938914  0.77787238     0.92600
C1382       C  0.32754831  0.12161890  0.90629169     0.91700
C1383       C  0.31771629  0.11506399  0.80164220     0.83900
C1384       C  0.42022806  0.13319938  0.90553937     0.90100
O1385       O  0.45001904  0.16306837  0.96219038    -0.73600
O1386       O  0.52094753  0.16151363  0.72336143    -0.74600
O1387       O  0.52070203  0.16506846  0.96093154    -0.63200
O1388       O  0.44819853  0.15951867  0.72445146    -0.71600
O1389       O  0.44990240  0.10376030  0.72276359    -0.71200
O1390       O  0.52112482  0.10924116  0.95943524    -0.62400
O1391       O  0.52132557  0.10567631  0.72155722    -0.74900
O1392       O  0.45156822  0.10721879  0.96112366    -0.73700
Cu1393     Cu  0.48422256  0.16330859  0.67654553     1.04600
Cu1394     Cu  0.48541341  0.10365328  0.67534278     1.04300
C1395       C  0.44158898  0.13490966  0.94474362     0.92600
C1396       C  0.53173071  0.13342306  0.73811547     0.91700
C1397       C  0.52968239  0.13737474  0.94281674     0.83900
C1398       C  0.43874534  0.13108582  0.73973449     0.90100
C1399       C  0.12880603  0.78345973  0.75067813     0.85800
C1400       C  0.15276111  0.81344645  0.74066519    -0.54400
C1401       C  0.15071791  0.82303357  0.02906017     0.08700
C1402       C  0.12460713  0.80321384  0.00168961     0.19700
C1403       C  0.09289957  0.79635647  0.73830586    -0.55100
C1404       C  0.09094881  0.80568246  0.02626004     0.08800
C1405       C  0.13682949  0.75710188  0.71563315    -0.54700
C1406       C  0.13526984  0.76677977  0.00632729     0.09400
H1407       H  0.17172046  0.82306488  0.76319351     0.13900
H1408       H  0.12274453  0.81126994  0.96762942    -0.00300
H1409       H  0.07075590  0.79604854  0.75886087     0.14200
H1410       H  0.14206888  0.73007453  0.05441557     0.14000
O1411       O  0.11900904  0.63230294  0.89364949    -0.73600
O1412       O  0.12366288  0.56739755  0.79521207    -0.74600
O1413       O  0.12284915  0.56252360  0.88907100    -0.63200
O1414       O  0.12016905  0.63928889  0.80674341    -0.71600
O1415       O  0.17635831  0.64311930  0.80838237    -0.71200
O1416       O  0.17919914  0.56541755  0.89144551    -0.62400
O1417       O  0.18000055  0.56979503  0.79603032    -0.74900
O1418       O  0.17521985  0.63637735  0.89529622    -0.73700
Cu1419     Cu  0.11967632  0.59956929  0.84565619     1.04600
Cu1420     Cu  0.17981595  0.60298680  0.84735360     1.04300
C1421       C  0.14591611  0.64718435  0.90654591     0.92600
C1422       C  0.15226085  0.55893501  0.77890096     0.91700
C1423       C  0.15109348  0.55460126  0.90685285     0.83900
C1424       C  0.14726046  0.65685500  0.80281944     0.90100
C1425       C  0.11939621  0.19969010  0.96027293     0.85800
C1426       C  0.14245724  0.17057945  0.97446759    -0.54400
C1427       C  0.13215173  0.15442892  0.68033914     0.08700
C1428       C  0.09883278  0.16904815  0.70043536     0.19700
C1429       C  0.08468627  0.18313319  0.95590310    -0.55100
C1430       C  0.07316729  0.16929408  0.66207066     0.08800
C1431       C  0.11643318  0.22224457  0.99979319    -0.54700
C1432       C  0.10723330  0.20680833  0.70776477     0.09400
H1433       H  0.16522135  0.16324901  0.95707706     0.13900
H1434       H  0.08968374  0.15586239  0.72963142    -0.00300
H1435       H  0.07030149  0.18209652  0.92613904     0.14200
H1436       H  0.12420146  0.24931795  0.67222417     0.14000
O1437       O  0.16886812  0.41010996  0.79641031    -0.73600
O1438       O  0.16248315  0.34085224  0.88774742    -0.74600
O1439       O  0.15692616  0.33829554  0.80004727    -0.63200
O1440       O  0.17032549  0.41171595  0.89170214    -0.71600
O1441       O  0.11420350  0.41695797  0.89372105    -0.71200
O1442       O  0.10172129  0.34914162  0.80027505    -0.62400
O1443       O  0.10627804  0.34557776  0.88761353    -0.74900
O1444       O  0.11329001  0.41936335  0.79906150    -0.73700
Cu1445     Cu  0.16673077  0.37576021  0.84375381     1.04600
Cu1446     Cu  0.10709349  0.38378261  0.84545017     1.04300
C1447       C  0.14231629  0.42425232  0.78127522     0.92600
C1448       C  0.13328870  0.32867014  0.89570941     0.91700
C1449       C  0.12624346  0.32979784  0.79040411     0.83900
C1450       C  0.14342917  0.42373787  0.90955605     0.90100
O1451       O  0.11751210  0.45704265  0.96492309    -0.73600
O1452       O  0.12411922  0.52724803  0.72337188    -0.74600
O1453       O  0.12180313  0.52652182  0.96306941    -0.63200
O1454       O  0.11840139  0.45728790  0.72487766    -0.71600
O1455       O  0.17464311  0.45313154  0.72711318    -0.71200
O1456       O  0.17817058  0.52376131  0.96395648    -0.62400
O1457       O  0.18041689  0.52407901  0.72572398    -0.74900
O1458       O  0.17384491  0.45369927  0.96550012    -0.73700
Cu1459     Cu  0.12067969  0.49109951  0.67699639     1.04600
Cu1460     Cu  0.18083395  0.48745423  0.67885339     1.04300
C1461       C  0.14518739  0.44567644  0.94860281     0.92600
C1462       C  0.15248472  0.53595246  0.74064033     0.91700
C1463       C  0.15052972  0.53391327  0.94636807     0.83900
C1464       C  0.14530828  0.44588277  0.74264966     0.90100
O1465       O  0.18028831  0.02910250  0.96383795    -0.73600
O1466       O  0.16025888  0.95636189  0.87648131    -0.74600
O1467       O  0.15125105  0.02716332  0.88182265    -0.63200
O1468       O  0.19066938  0.95816099  0.95941495    -0.71600
O1469       O  0.14136021  0.94705781  0.65428267    -0.71200
O1470       O  0.10531049  0.02424140  0.58208466    -0.62400
O1471       O  0.11109246  0.95444100  0.57264155    -0.74900
O1472       O  0.13455048  0.01990667  0.66551701    -0.73700
Cu1473     Cu  0.17246031  0.99297612  0.91977239     1.04600
Cu1474     Cu  0.12135240  0.98630104  0.61998791     1.04300
C1475       C  0.16157600  0.03710507  0.66044270     0.92600
C1476       C  0.13225191  0.94542448  0.54359987     0.91700
C1477       C  0.12378258  0.03821578  0.55330752     0.83900
C1478       C  0.17248409  0.93930220  0.64759808     0.90100
O1479       O  0.01766586  0.14834047  0.87984609    -0.73600
O1480       O  0.94671082  0.15682663  0.97198065    -0.74600
O1481       O  0.01695253  0.17216728  0.96647764    -0.63200
O1482       O  0.94699348  0.13403844  0.88698014    -0.71600
O1483       O  0.96048448  0.08767860  0.57815007    -0.71200
O1484       O  0.03257800  0.12388871  0.65974134    -0.62400
O1485       O  0.95942560  0.10915053  0.66486216    -0.74900
O1486       O  0.03043564  0.10090487  0.57400252    -0.73700
Cu1487     Cu  0.98170028  0.15469605  0.92593057     1.04600
Cu1488     Cu  0.99607073  0.10364912  0.62030693     1.04300
C1489       C  0.03665766  0.12420980  0.54703333     0.92600
C1490       C  0.94028491  0.13501866  0.66369448     0.91700
C1491       C  0.03846926  0.15540286  0.65653213     0.83900
C1492       C  0.94376867  0.10714169  0.55309052     0.90100
O1493       O  0.97366328  0.80679066  0.89051633    -0.73600
O1494       O  0.05156439  0.78929539  0.97246023    -0.74600
O1495       O  0.98056562  0.77611952  0.97310550    -0.63200
O1496       O  0.04449820  0.81672190  0.89052581    -0.71600
O1497       O  0.04146463  0.86614675  0.59847510    -0.71200
O1498       O  0.96597900  0.82562276  0.67177971    -0.62400
O1499       O  0.03950806  0.83560947  0.68102081    -0.74900
O1500       O  0.97106163  0.85882735  0.59219129    -0.73700
Cu1501     Cu  0.01281451  0.79527458  0.93110569     1.04600
Cu1502     Cu  0.00427881  0.84817069  0.63750605     1.04300
C1503       C  0.96311002  0.83945542  0.56067704     0.92600
C1504       C  0.05831126  0.81025339  0.67312424     0.91700
C1505       C  0.95961258  0.79465290  0.66319190     0.83900
C1506       C  0.05477971  0.84910135  0.56735251     0.90100
O1507       O  0.82334887  0.00026300  0.89574689    -0.73600
O1508       O  0.81501834  0.92447023  0.97917507    -0.74600
O1509       O  0.79728608  0.99486062  0.98056238    -0.63200
O1510       O  0.84052361  0.93134776  0.89660036    -0.71600
O1511       O  0.89257909  0.94370862  0.59918577    -0.71200
O1512       O  0.84908321  0.00997976  0.68204428    -0.62400
O1513       O  0.86451187  0.93768116  0.68345040    -0.74900
O1514       O  0.87765185  0.01237407  0.59914190    -0.73700
Cu1515     Cu  0.81709451  0.96234732  0.93759138     1.04600
Cu1516     Cu  0.87268691  0.97620524  0.64240064     1.04300
C1517       C  0.85550524  0.01898376  0.57017398     0.92600
C1518       C  0.83940775  0.91787282  0.67660195     0.91700
C1519       C  0.81730592  0.01462970  0.67597815     0.83900
C1520       C  0.87545794  0.92927646  0.56896308     0.90100
C1521       C  0.87792643  0.86891528  0.87457808    -0.27000
C1522       C  0.89276569  0.90534455  0.54041189    -0.15100
C1523       C  0.92535638  0.91275494  0.52469393     0.35600
C1524       C  0.94791171  0.88627045  0.51626147    -0.26400
C1525       C  0.93921174  0.85351833  0.52899943    -0.15700
C1526       C  0.90087167  0.84229441  0.86981240     0.36600
N1527       N  0.88920452  0.80884322  0.87717725    -0.89900
H1528       H  0.85234605  0.86366807  0.88569358     0.17800
H1529       H  0.97431663  0.89235224  0.50997007     0.17800
N1530       N  0.93664492  0.94697182  0.52188890    -0.89000
H1531       H  0.90519276  0.80191709  0.56513852     0.35100
H1532       H  0.89525250  0.79452889  0.84977750     0.40200
H1533       H  0.94453900  0.95115507  0.49020040     0.39800
H1534       H  0.95777627  0.95004420  0.54218447     0.34700
C1535       C  0.88024462  0.09918129  0.87507766    -0.27000
C1536       C  0.91498584  0.09296911  0.52889749    -0.15100
C1537       C  0.91867625  0.06123386  0.50867808     0.35600
C1538       C  0.89275110  0.03748322  0.51335023    -0.26400
C1539       C  0.86443599  0.04500776  0.53909406    -0.15700
C1540       C  0.85315099  0.07635549  0.87579199     0.36600
N1541       N  0.82124648  0.08697620  0.89338455    -0.89900
H1542       H  0.87680428  0.12402003  0.88924672     0.17800
H1543       H  0.89771387  0.01160313  0.50383211     0.17800
N1544       N  0.95009773  0.05101947  0.48892802    -0.89000
H1545       H  0.81659440  0.07317017  0.92124416     0.35100
H1546       H  0.80223573  0.08112680  0.87086133     0.40200
H1547       H  0.96694863  0.07135539  0.48758754     0.39800
H1548       H  0.94465332  0.04447170  0.45685575     0.34700
C1549       C  0.05466235  0.08215374  0.82510324    -0.27000
C1550       C  0.06278555  0.11684160  0.51435971    -0.15100
C1551       C  0.09640557  0.12495814  0.52628049     0.35600
C1552       C  0.11927472  0.09856481  0.53480302    -0.26400
C1553       C  0.10895749  0.06519843  0.52737688    -0.15700
C1554       C  0.07631603  0.05546939  0.83568306     0.36600
N1555       N  0.06758373  0.02179223  0.82339385    -0.89900
H1556       H  0.03002523  0.07632019  0.81103226     0.17800
H1557       H  0.14321307  0.10375431  0.55103600     0.17800
N1558       N  0.10557379  0.15931855  0.53458000    -0.89000
H1559       H  0.06747027  0.02427903  0.45738665     0.35100
H1560       H  0.04660048  0.02004408  0.50469356     0.40200
H1561       H  0.10157669  0.16793480  0.83411007     0.39800
H1562       H  0.12812691  0.15774690  0.87441092     0.34700
C1563       C  0.13547965  0.88628274  0.52619799    -0.27000
C1564       C  0.12165103  0.91758612  0.51525939    -0.15100
C1565       C  0.08688446  0.91709759  0.83307356     0.35600
C1566       C  0.06429808  0.89138782  0.84385220    -0.26400
C1567       C  0.07827320  0.86576037  0.53780162    -0.15700
C1568       C  0.11383301  0.86004955  0.53868780     0.36600
N1569       N  0.12867037  0.82993471  0.55579029    -0.89900
H1570       H  0.16244128  0.88412859  0.53278022     0.17800
H1571       H  0.03721530  0.89507424  0.83908527     0.17800
N1572       N  0.07442220  0.94720185  0.81373227    -0.89000
H1573       H  0.14162996  0.81689149  0.86155995     0.35100
H1574       H  0.10673825  0.80887178  0.88999394     0.40200
H1575       H  0.05502363  0.95791649  0.50418764     0.39800
H1576       H  0.06227068  0.94222940  0.45420706     0.34700
C1577       C  0.10262648  0.23872554  0.90098848    -0.27000
C1578       C  0.12951333  0.22260805  0.92300432    -0.15100
C1579       C  0.16058078  0.24046708  0.92661897     0.35600
C1580       C  0.16096058  0.27539414  0.91933571    -0.26400
C1581       C  0.13129189  0.29257808  0.90662908    -0.15700
C1582       C  0.10245092  0.27344480  0.89512588     0.36600
N1583       N  0.07256244  0.28895805  0.87766396    -0.89900
H1584       H  0.07941436  0.22581576  0.89256671     0.17800
H1585       H  0.18437731  0.28928921  0.92450418     0.17800
N1586       N  0.19059732  0.22381973  0.94191110    -0.89000
H1587       H  0.05215697  0.28374347  0.89813457     0.35100
H1588       H  0.06736385  0.27783258  0.84762598     0.40200
H1589       H  0.21089689  0.24076567  0.94461350     0.39800
H1590       H  0.19754547  0.20610776  0.91835313     0.34700
C1591       C  0.07918009  0.25262054  0.74539475    -0.27000
C1592       C  0.10488203  0.22819818  0.74676867    -0.15100
C1593       C  0.13581169  0.23638708  0.76739858     0.35600
C1594       C  0.14234373  0.26976432  0.78043612    -0.26400
C1595       C  0.11828201  0.29535986  0.77380858    -0.15700
C1596       C  0.08561180  0.28605321  0.75762112     0.36600
N1597       N  0.05891423  0.30998812  0.75081315    -0.89900
H1598       H  0.05548629  0.24679947  0.72886159     0.17800
H1599       H  0.16659520  0.27578897  0.79536801     0.17800
N1600       N  0.16163624  0.21115671  0.77134100    -0.89000
H1601       H  0.06815548  0.32952013  0.73173416     0.35100
H1602       H  0.05078298  0.31949200  0.78060406     0.40200
H1603       H  0.15227737  0.19373415  0.79332060     0.39800
H1604       H  0.18369943  0.22137497  0.78516815     0.34700
C1605       C  0.11156970  0.70861728  0.80611003    -0.27000
C1606       C  0.14397097  0.69432350  0.79999592    -0.15100
C1607       C  0.17222957  0.71655533  0.80005454     0.35600
C1608       C  0.16682908  0.75178796  0.79925600    -0.26400
C1609       C  0.13363419  0.76484962  0.79335560    -0.15700
C1610       C  0.10678322  0.74357123  0.80607849     0.36600
N1611       N  0.07438553  0.75720623  0.81780260    -0.89900
H1612       H  0.08960757  0.69275481  0.81140429     0.17800
H1613       H  0.18860462  0.76784456  0.79346852     0.17800
N1614       N  0.20624860  0.70377145  0.79843472    -0.89000
H1615       H  0.06929351  0.75012122  0.84956366     0.35100
H1616       H  0.05584993  0.74612981  0.79792013     0.40200
H1617       H  0.21955458  0.71347540  0.82506990     0.39800
H1618       H  0.21777984  0.71285958  0.77047546     0.34700
C1619       C  0.17292693  0.69456406  0.94615008    -0.27000
C1620       C  0.14307730  0.67929055  0.93037584    -0.15100
C1621       C  0.11170580  0.69678787  0.93356440     0.35600
C1622       C  0.11105574  0.72834179  0.95365329    -0.26400
C1623       C  0.14041316  0.74240057  0.97157544    -0.15700
C1624       C  0.17187642  0.72558486  0.96747413     0.36600
N1625       N  0.20281326  0.73844903  0.98633468    -0.89900
H1626       H  0.19724912  0.68194022  0.94310260     0.17800
H1627       H  0.08690397  0.74059992  0.95863628     0.17800
N1628       N  0.08036589  0.68229554  0.91793193    -0.89000
H1629       H  0.20938424  0.72318658  0.68350040     0.35100
H1630       H  0.19947015  0.76320832  0.67192060     0.40200
H1631       H  0.08129760  0.68211409  0.88426674     0.39800
H1632       H  0.05957553  0.69743744  0.92617126     0.34700
C1633       C  0.23264287  0.06887754  0.79346461    -0.27000
C1634       C  0.20963241  0.09613808  0.79164964    -0.15100
C1635       C  0.22173738  0.12690619  0.80919954     0.35600
C1636       C  0.25710496  0.13309703  0.81061076    -0.26400
C1637       C  0.28054414  0.10789881  0.79847609    -0.15700
C1638       C  0.26788495  0.07477704  0.79237115     0.36600
N1639       N  0.29035865  0.04715685  0.78361489    -0.89900
H1640       H  0.22404984  0.04362571  0.78591583     0.17800
H1641       H  0.26621667  0.15763611  0.82095241     0.17800
N1642       N  0.19809672  0.15256047  0.82182625    -0.89000
H1643       H  0.28369218  0.03670022  0.75364092     0.35100
H1644       H  0.28643582  0.02882358  0.80708803     0.40200
H1645       H  0.21172395  0.17538814  0.16305152     0.39800
H1646       H  0.18477899  0.14509581  0.17838799     0.34700
C1647       C  0.24339764  0.08931804  0.94791808    -0.27000
C1648       C  0.23275913  0.11654602  0.97310877    -0.15100
C1649       C  0.25313479  0.14568080  0.97652797     0.35600
C1650       C  0.28415210  0.14680245  0.95455556    -0.26400
C1651       C  0.29591254  0.11865308  0.93126722    -0.15700
C1652       C  0.27517677  0.08954813  0.92785230     0.36600
N1653       N  0.28663398  0.05995973  0.90510962    -0.89900
H1654       H  0.22823335  0.06666178  0.94689996     0.17800
H1655       H  0.29978466  0.16923310  0.95698904     0.17800
N1656       N  0.24338783  0.17275797  0.00511100    -0.89000
H1657       H  0.26859390  0.04065988  0.90673811     0.35100
H1658       H  0.28862035  0.06609272  0.87261877     0.40200
H1659       H  0.22503503  0.18181217  0.66266686     0.39800
H1660       H  0.26094905  0.19248119  0.00380429     0.34700
C1661       C  0.73091338  0.13505824  0.94871112    -0.27000
C1662       C  0.73368680  0.10376255  0.96889565    -0.15100
C1663       C  0.70447542  0.08263811  0.97146483     0.35600
C1664       C  0.67418850  0.09257926  0.95319446    -0.26400
C1665       C  0.67161796  0.12304874  0.93179981    -0.15700
C1666       C  0.70001486  0.14512162  0.93055510     0.36600
N1667       N  0.69839624  0.17775870  0.91145264    -0.89900
H1668       H  0.75211791  0.15238746  0.94825916     0.17800
H1669       H  0.65251416  0.07573727  0.95523191     0.17800
N1670       N  0.70495034  0.05157171  0.99480153    -0.89000
H1671       H  0.67959578  0.19175840  0.92722495     0.35100
H1672       H  0.69185592  0.17505016  0.87893011     0.40200
H1673       H  0.69785179  0.03208946  0.97368774     0.39800
H1674       H  0.68688289  0.05305461  0.01950554     0.34700
C1675       C  0.69988363  0.07401411  0.79783707    -0.27000
C1676       C  0.69091763  0.10851890  0.79653619    -0.15100
C1677       C  0.71781996  0.13236253  0.79875345     0.35600
C1678       C  0.75201858  0.12106176  0.79711961    -0.26400
C1679       C  0.75936132  0.08740928  0.78563688    -0.15700
C1680       C  0.73399096  0.06338245  0.79397389     0.36600
N1681       N  0.74210552  0.02824089  0.78986352    -0.89900
H1682       H  0.68022751  0.05500388  0.80010218     0.17800
H1683       H  0.77207440  0.13957070  0.79381126     0.17800
N1684       N  0.71067624  0.16780524  0.80008749    -0.89000
H1685       H  0.72039930  0.01350734  0.79459305     0.35100
H1686       H  0.75904505  0.02242564  0.81479306     0.40200
H1687       H  0.69967272  0.17413053  0.77048036     0.39800
H1688       H  0.73321705  0.18169728  0.80271128     0.34700
C1689       C  0.29733111  0.82093200  0.91767344    -0.27000
C1690       C  0.31205191  0.85108434  0.90329704    -0.15100
C1691       C  0.29040978  0.87636211  0.88689609     0.35600
C1692       C  0.25517700  0.87249139  0.89065529    -0.26400
C1693       C  0.24141450  0.84666081  0.91610457    -0.15700
C1694       C  0.26198157  0.81798948  0.92259443     0.36600
N1695       N  0.24755421  0.78787329  0.93996408    -0.89900
H1696       H  0.31343843  0.79982483  0.92596718     0.17800
H1697       H  0.23927344  0.89227177  0.87826002     0.17800
N1698       N  0.30397003  0.90565166  0.86605205    -0.89000
H1699       H  0.26639907  0.76976660  0.94502637     0.35100
H1700       H  0.23112723  0.77789739  0.91646815     0.40200
H1701       H  0.31544747  0.92063076  0.88991985     0.39800
H1702       H  0.28447205  0.92025263  0.85283290     0.34700
C1703       C  0.25772905  0.84526723  0.75476237    -0.27000
C1704       C  0.24946650  0.87688421  0.73776572    -0.15100
C1705       C  0.27309781  0.90336667  0.74227464     0.35600
C1706       C  0.30579694  0.89675356  0.75890473    -0.26400
C1707       C  0.31558414  0.86407861  0.77134681    -0.15700
C1708       C  0.29038485  0.83849710  0.77147320     0.36600
N1709       N  0.29800280  0.80553231  0.78762044    -0.89900
H1710       H  0.23974276  0.82474611  0.75071534     0.17800
H1711       H  0.32402939  0.91717576  0.76094335     0.17800
N1712       N  0.26439350  0.93648842  0.72748002    -0.89000
H1713       H  0.27713948  0.78941677  0.78358006     0.35100
H1714       H  0.30182262  0.80791458  0.82091825     0.40200
H1715       H  0.26157874  0.93540044  0.69391533     0.39800
H1716       H  0.28423494  0.95339478  0.73384422     0.34700
C1717       C  0.73796652  0.81957117  0.81088832    -0.27000
C1718       C  0.71786786  0.84841755  0.80501063    -0.15100
C1719       C  0.73439982  0.88021903  0.80731106     0.35600
C1720       C  0.77019441  0.88155451  0.80771326    -0.26400
C1721       C  0.78953493  0.85233834  0.79949657    -0.15700
C1722       C  0.77362903  0.82154035  0.80998050     0.36600
N1723       N  0.79304380  0.79133981  0.81288495    -0.89900
H1724       H  0.72617937  0.79513126  0.81484836     0.17800
H1725       H  0.78223910  0.90597240  0.80655782     0.17800
N1726       N  0.71522994  0.91104693  0.80825864    -0.89000
H1727       H  0.78822752  0.78065561  0.84297338     0.35100
H1728       H  0.78389748  0.77478205  0.78907814     0.40200
H1729       H  0.70379615  0.91367968  0.77795572     0.39800
H1730       H  0.73130316  0.93184309  0.81238181     0.34700
C1731       C  0.75137467  0.87257722  0.96718612    -0.27000
C1732       C  0.76771038  0.84240324  0.97733993    -0.15100
C1733       C  0.75218921  0.81169908  0.96598131     0.35600
C1734       C  0.72075179  0.81169465  0.94441266    -0.26400
C1735       C  0.70379362  0.84204388  0.93518752    -0.15700
C1736       C  0.71975443  0.87294044  0.94630975     0.36600
N1737       N  0.70365932  0.90467809  0.93757008    -0.89900
H1738       H  0.76164814  0.89602525  0.97923021     0.17800
H1739       H  0.70935758  0.78772449  0.93564757     0.17800
N1740       N  0.76571760  0.78214176  0.64955111    -0.89000
H1741       H  0.71965399  0.92478268  0.94586310     0.35100
H1742       H  0.68242425  0.90661760  0.95771993     0.40200
H1743       H  0.76966973  0.76698592  0.62222677     0.39800
H1744       H  0.74799874  0.77009484  0.66922371     0.34700
C1745       C  0.91915146  0.20654989  0.79288842    -0.27000
C1746       C  0.88899898  0.18707779  0.79313980    -0.15100
C1747       C  0.86016502  0.20243714  0.81201709     0.35600
C1748       C  0.85883773  0.23768083  0.81642521    -0.26400
C1749       C  0.88682396  0.25790571  0.80520659    -0.15700
C1750       C  0.91799968  0.24171614  0.79619370     0.36600
N1751       N  0.94854001  0.26067262  0.78937903    -0.89900
H1752       H  0.94309566  0.19563699  0.78313414     0.17800
H1753       H  0.83575029  0.24912649  0.82869674     0.17800
N1754       N  0.83124041  0.18263910  0.82351886    -0.89000
H1755       H  0.95771272  0.25484964  0.75853832     0.35100
H1756       H  0.96668183  0.25290419  0.81195560     0.40200
H1757       H  0.81022582  0.19137448  0.80617646     0.39800
H1758       H  0.82652207  0.18665050  0.85639887     0.34700
C1759       C  0.88805306  0.20773064  0.94448825    -0.27000
C1760       C  0.86229853  0.20342323  0.97491578    -0.15100
C1761       C  0.83880212  0.22972609  0.98196747     0.35600
C1762       C  0.84487107  0.26138338  0.96400128    -0.26400
C1763       C  0.87391228  0.26723185  0.93893105    -0.15700
C1764       C  0.89507556  0.23969593  0.92763055     0.36600
N1765       N  0.92338718  0.24406325  0.89894899    -0.89900
H1766       H  0.90425312  0.18686394  0.93621639     0.17800
H1767       H  0.82733448  0.28182979  0.97057144     0.17800
N1768       N  0.81032224  0.22462077  0.01019604    -0.89000
H1769       H  0.93485304  0.22089539  0.89189435     0.35100
H1770       H  0.94172366  0.25837728  0.91534791     0.40200
H1771       H  0.79477681  0.20620708  0.99596748     0.39800
H1772       H  0.79570900  0.24653206  0.01273725     0.34700
C1773       C  0.83718567  0.70197475  0.95407973    -0.27000
C1774       C  0.86400467  0.72346122  0.94180971    -0.15100
C1775       C  0.88580353  0.71155754  0.90903427     0.35600
C1776       C  0.89010154  0.67709145  0.90381500    -0.26400
C1777       C  0.86966808  0.65453591  0.92644853    -0.15700
C1778       C  0.84104427  0.66692517  0.94900930     0.36600
N1779       N  0.81726930  0.64410657  0.96832787    -0.89900
H1780       H  0.81785749  0.71145755  0.97592722     0.17800
H1781       H  0.90859556  0.66801592  0.88054858     0.17800
N1782       N  0.90267853  0.73398915  0.88030237    -0.89000
H1783       H  0.79792556  0.65744107  0.98404766     0.35100
H1784       H  0.83034510  0.63076105  0.99212111     0.40200
H1785       H  0.89331655  0.72926431  0.84925341     0.39800
H1786       H  0.92858234  0.72801427  0.87977655     0.34700
C1787       C  0.86070691  0.67761124  0.78945273    -0.27000
C1788       C  0.88827170  0.65527957  0.78711269    -0.15100
C1789       C  0.91963871  0.66755337  0.77107684     0.35600
C1790       C  0.92210246  0.70074842  0.75572863    -0.26400
C1791       C  0.89364596  0.72205187  0.75471087    -0.15700
C1792       C  0.86317879  0.71050444  0.77341695     0.36600
N1793       N  0.83379117  0.73159090  0.77349027    -0.89900
H1794       H  0.83684212  0.66948355  0.80335249     0.17800
H1795       H  0.94531104  0.70848767  0.73979133     0.17800
N1796       N  0.94871108  0.64594366  0.76808648    -0.89000
H1797       H  0.82569044  0.73358714  0.80552209     0.35100
H1798       H  0.81464199  0.71939449  0.75577060     0.40200
H1799       H  0.96859948  0.65712435  0.78558241     0.39800
H1800       H  0.95602224  0.64443335  0.73568941     0.34700
loop_ 
_geom_bond_atom_site_label_1 
_geom_bond_atom_site_label_2 
_geom_bond_distance 
_geom_bond_site_symmetry_2 
_ccdc_geom_bond_type 
C1            C2   1.527       .  S
C1            C7   1.519       .  S
C1            C5   1.513       .  S
C1          C574   1.525       .  S
C2            H9   1.083       .  S
C2          C603   1.375       .  D
C3            C4   1.560       .  S
C3         C1202   1.372   1_554  D
C3         C1269   1.486       .  S
C4            C8   1.555       .  S
C4            C6   1.555       .  S
C4           H10   1.110       .  S
C5           H11   1.071       .  S
C5          C606   1.357       .  D
C6         C1205   1.362   1_554  D
C6          C305   1.483   1_554  S
C7          H612   1.088       .  S
C7          C608   1.349       .  D
C8         C1207   1.348       .  D
C8          C591   1.477       .  S
H12        C1207   1.088       .  S
O13         Cu21   2.002       .  S
O13          C23   1.274       .  A
O14         Cu21   1.975       .  S
O14          C24   1.271       .  A
O15         Cu21   2.014       .  S
O15          C25   1.284       .  A
O16         Cu21   2.052       .  S
O16          C26   1.285       .  A
O17         Cu22   2.005       .  S
O17          C26   1.275       .  A
O18         Cu22   1.947       .  S
O18          C25   1.266       .  A
O19         Cu22   2.055       .  S
O19          C24   1.288       .  A
O20         Cu22   2.061       .  S
O20          C23   1.286       .  A
Cu21        Cu22   2.368       .  S
C23          C65   1.489       .  S
C24         C588   1.495       .  S
C25         C577   1.468       .  S
C26          C64   1.486       .  S
C27          C28   1.541       .  S
C27          C33   1.531       .  S
C27          C31   1.540       .  S
C27         C546   1.528       .  S
C28          H35   1.084       .  S
C28        C1229   1.374       .  D
C29          C30   1.557       .  S
C29         C628   1.375       .  D
C29         C735   1.490       .  S
C30          C34   1.533       .  S
C30          C32   1.550       .  S
C30          H36   1.111       .  S
C31          H37   1.084       .  S
C31        C1232   1.360       .  D
C32         C631   1.360       .  D
C32         C890   1.468       .  S
C33        H1238   1.088       .  S
C33        C1234   1.345       .  D
C34         C633   1.346       .  D
C34         C560   1.483       .  S
H38         C633   1.088       .  S
O39         Cu47   2.027       .  S
O39          C49   1.281       .  A
O40         Cu47   2.012       .  S
O40          C50   1.281       .  A
O41         Cu47   1.974       .  S
O41          C51   1.274       .  A
O42         Cu47   2.026       .  S
O42          C52   1.279       .  A
O43         Cu48   2.049       .  S
O43          C52   1.283       .  A
O44         Cu48   2.020       .  S
O44          C51   1.281       .  A
O45         Cu48   1.969       .  S
O45          C50   1.273       .  A
O46         Cu48   2.002       .  S
O46          C49   1.276       .  A
Cu47        Cu48   2.368       .  S
C49          C63   1.475       .  S
C50         C549   1.485       .  S
C51         C563   1.476       .  S
C52          C66   1.490       .  S
O53        Cu661   2.018       .  S
O53          C63   1.278       .  A
O54         Cu61   2.035       .  S
O54          C64   1.283       .  A
O55        Cu661   2.032       .  S
O55          C65   1.278       .  A
O56         Cu61   2.032       .  S
O56          C66   1.281       .  A
O57         Cu62   2.042       .  S
O57          C66   1.281       .  A
O58        Cu662   2.037       .  S
O58          C65   1.283       .  A
O59         Cu62   2.030       .  S
O59          C64   1.278       .  A
O60        Cu662   2.014       .  S
O60          C63   1.279       .  A
Cu61       O1253   2.027   1_554  S
Cu61       O1255   2.027   1_554  S
Cu61        Cu62   2.369       .  S
Cu62       O1258   2.035   1_554  S
Cu62       O1260   2.018   1_554  S
C67          C68   1.542       .  S
C67          C73   1.537       .  S
C67          C71   1.545       .  S
C67         C521   1.529       .  S
C68          H75   1.084       .  S
C68        C1269   1.374       .  D
C69          C70   1.551       .  S
C69         C668   1.375       .  D
C69         C603   1.484       .  S
C70          C74   1.525       .  S
C70          C72   1.541       .  S
C70          H76   1.112       .  S
C71          H77   1.084       .  S
C71        C1272   1.360       .  D
C72         C671   1.361       .  D
C72         C918   1.467       .  S
C73        H1278   1.087       .  S
C73        C1274   1.341       .  D
C74         C673   1.340       .  D
C74         C532   1.470       .  S
H78         C673   1.085       .  S
O79         Cu87   2.030       .  S
O79          C89   1.280       .  A
O80         Cu87   2.001       .  S
O80          C90   1.277       .  A
O81         Cu87   1.964       .  S
O81          C91   1.272       .  A
O82         Cu87   1.994       .  S
O82          C92   1.276       .  A
O83         Cu88   2.030       .  S
O83          C92   1.280       .  A
O84         Cu88   2.006       .  S
O84          C91   1.280       .  A
O85         Cu88   2.000       .  S
O85          C90   1.278       .  A
O86         Cu88   2.056       .  S
O86          C89   1.282       .  A
Cu87        Cu88   2.367       .  S
C89         C132   1.495       .  S
C90         C535   1.485       .  S
C91         C518   1.486       .  S
C92         C129   1.474       .  S
C93          C94   1.523       .  S
C93          C99   1.522       .  S
C93          C97   1.523       .  S
C93         C493   1.525       .  S
C94         H101   1.085       .  S
C94         C695   1.373       .  D
C95          C96   1.557       .  S
C95        C1294   1.375   1_554  D
C95        C1401   1.484       .  S
C96         C100   1.545       .  S
C96          C98   1.564   1_554  S
C96         H102   1.110       .  S
C97         H103   1.080       .  S
C97         C698   1.360       .  D
C98        C1297   1.361       .  D
C98         C278   1.484       .  S
C99         H704   1.088       .  S
C99         C700   1.350       .  D
C100       C1299   1.349   1_554  D
C100        C504   1.474       .  S
H104       C1299   1.089       .  S
O105       Cu113   2.007       .  S
O105        C115   1.276       .  A
O106       Cu113   1.956       .  S
O106        C116   1.270       .  A
O107       Cu113   2.043       .  S
O107        C117   1.285       .  A
O108       Cu113   2.058       .  S
O108        C118   1.285       .  A
O109       Cu114   2.013       .  S
O109        C118   1.276       .  A
O110       Cu114   1.978       .  S
O110        C117   1.274       .  A
O111       Cu114   2.007       .  S
O111        C116   1.281       .  A
O112       Cu114   2.044       .  S
O112        C115   1.283       .  A
Cu113      Cu114   2.368       .  S
C115        C130   1.483       .  S
C116        C490   1.472       .  S
C117        C507   1.494       .  S
C118        C131   1.490       .  S
O119       Cu727   2.027       .  S
O119        C129   1.279       .  A
O120       Cu127   2.031       .  S
O120        C130   1.282       .  A
O121       Cu727   2.039       .  S
O121        C131   1.280       .  A
O122       Cu127   2.054       .  S
O122        C132   1.283       .  A
O123       Cu128   2.032       .  S
O123        C132   1.281       .  A
O124       Cu728   2.033       .  S
O124        C131   1.282       .  A
O125       Cu128   2.025       .  S
O125        C130   1.278       .  A
O126       Cu728   2.004       .  S
O126        C129   1.278       .  A
Cu127      O1319   2.028   1_554  S
Cu127      O1321   2.047   1_554  S
Cu127      Cu128   2.368       .  S
Cu128      O1324   2.032   1_554  S
Cu128      O1326   2.011   1_554  S
C133        C134   1.542       .  S
C133        C139   1.497       .  S
C133        C137   1.509       .  S
C133        C462   1.506       .  S
C134        H141   1.084       .  S
C134        C735   1.376       .  D
C135        C136   1.558       .  S
C135       C1334   1.377   1_554  D
C135       C1229   1.483       .  S
C136        C140   1.557       .  S
C136        C138   1.569       .  S
C136        H142   1.110       .  S
C137        H143   1.088       .  S
C137        C738   1.359       .  D
C138       C1337   1.358   1_554  D
C138        C319   1.490       .  S
C139        H744   1.089       .  S
C139        C740   1.346       .  D
C140       C1339   1.346       .  D
C140        C479   1.480       .  S
H144       C1339   1.089       .  S
O145       Cu153   1.985       .  S
O145        C155   1.275       .  A
O146       Cu153   1.980       .  S
O146        C156   1.275       .  A
O147       Cu153   1.966       .  S
O147        C157   1.278       .  A
O148       Cu153   2.018       .  S
O148        C158   1.279       .  A
O149       Cu154   2.049       .  S
O149        C158   1.281       .  A
O150       Cu154   1.963       .  S
O150        C157   1.269       .  A
O151       Cu154   2.048       .  S
O151        C156   1.286       .  A
O152       Cu154   2.049       .  S
O152        C155   1.284       .  A
Cu153      Cu154   2.368       .  S
C155        C197   1.481       .  S
C156        C476   1.506       .  S
C157        C465   1.460       .  S
C158        C196   1.487       .  S
C159        C160   1.553       .  S
C159        C165   1.531       .  S
C159        C163   1.545       .  S
C159        C434   1.533       .  S
C160        H167   1.081       .  S
C160       C1361   1.381       .  D
C161        C162   1.547       .  S
C161        C760   1.380       .  D
C161        C827   1.492       .  S
C162        C166   1.520       .  S
C162        C164   1.539       .  S
C162        H168   1.112       .  S
C163        H169   1.085       .  S
C163       C1364   1.362       .  D
C164        C763   1.360       .  D
C164        C875   1.461       .  S
C165       H1370   1.085       .  S
C165       C1366   1.337       .  D
C166        C765   1.338       .  D
C166        C448   1.462       .  S
H170        C765   1.086       .  S
O171       Cu179   2.038       .  S
O171        C181   1.281       .  A
O172       Cu179   1.993       .  S
O172        C182   1.277       .  A
O173       Cu179   1.981       .  S
O173        C183   1.275       .  A
O174       Cu179   1.991       .  S
O174        C184   1.276       .  A
O175       Cu180   2.037       .  S
O175        C184   1.281       .  A
O176       Cu180   2.025       .  S
O176        C183   1.283       .  A
O177       Cu180   1.977       .  S
O177        C182   1.275       .  A
O178       Cu180   2.050       .  S
O178        C181   1.281       .  A
Cu179      Cu180   2.368       .  S
C181        C198   1.495       .  S
C182        C451   1.470       .  S
C183        C437   1.497       .  S
C184        C195   1.478       .  S
O185       Cu793   2.038       .  S
O185        C195   1.281       .  A
O186       Cu193   2.053       .  S
O186        C196   1.283       .  A
O187       Cu793   2.038       .  S
O187        C197   1.280       .  A
O188       Cu193   2.058       .  S
O188        C198   1.284       .  A
O189       Cu194   2.029       .  S
O189        C198   1.279       .  A
O190       Cu794   2.008       .  S
O190        C197   1.280       .  A
O191       Cu194   2.013       .  S
O191        C196   1.278       .  A
O192       Cu794   1.997       .  S
O192        C195   1.278       .  A
Cu193      O1385   2.034   1_554  S
Cu193      O1387   2.043   1_554  S
Cu193      Cu194   2.369       .  S
Cu194      O1390   2.010   1_554  S
Cu194      O1392   1.995   1_554  S
C199        C200   1.552       .  S
C199        C205   1.534       .  S
C199        C203   1.549       .  S
C199        C409   1.532       .  S
C200        H207   1.085       .  S
C200       C1401   1.378       .  D
C201        C202   1.541       .  S
C201        C800   1.378       .  D
C201        C695   1.486       .  S
C202        C206   1.517       .  S
C202        C204   1.529       .  S
C202        H208   1.107       .  S
C203        H209   1.080       .  S
C203       C1404   1.363       .  D
C204        C803   1.362       .  D
C204        C904   1.460       .  S
C205       H1410   1.087       .  S
C205       C1406   1.339       .  D
C206        C805   1.337       .  D
C206        C423   1.459       .  S
H210        C805   1.086       .  S
O211       Cu219   1.967       .  S
O211        C221   1.272       .  A
O212       Cu219   2.018       .  S
O212        C222   1.278       .  A
O213       Cu219   2.002       .  S
O213        C223   1.278       .  A
O214       Cu219   1.996       .  S
O214        C224   1.279       .  A
O215       Cu220   2.007       .  S
O215        C224   1.278       .  A
O216       Cu220   2.022       .  S
O216        C223   1.278       .  A
O217       Cu220   2.052       .  S
O217        C222   1.283       .  A
O218       Cu220   1.992       .  S
O218        C221   1.278       .  A
Cu219      Cu220   2.368       .  S
C221        C420   1.470       .  S
C222        C262   1.489       .  S
C223        C263   1.475       .  S
C224        C406   1.495       .  S
C225        C226   1.534       .  S
C225        C231   1.514       .  S
C225        C229   1.519       .  S
C225        C378   1.529       .  S
C226        H233   1.084       .  S
C226        C827   1.380       .  D
C227        C228   1.556       .  S
C227       C1426   1.382   1_554  D
C227       C1361   1.490       .  S
C228        C232   1.549       .  S
C228        C230   1.556   1_554  S
C228        H234   1.110       .  S
C229        H235   1.081       .  S
C229        C830   1.358       .  D
C230       C1429   1.357       .  D
C230        C291   1.477       .  S
C231        H836   1.090       .  S
C231        C832   1.349       .  D
C232       C1431   1.349   1_554  D
C232        C392   1.472       .  S
H236       C1431   1.090       .  S
O237       Cu245   2.015       .  S
O237        C247   1.276       .  A
O238       Cu245   1.965       .  S
O238        C248   1.271       .  A
O239       Cu245   2.036       .  S
O239        C249   1.285       .  A
O240       Cu245   2.058       .  S
O240        C250   1.285       .  A
O241       Cu246   2.006       .  S
O241        C250   1.276       .  A
O242       Cu246   1.972       .  S
O242        C249   1.270       .  A
O243       Cu246   2.005       .  S
O243        C248   1.281       .  A
O244       Cu246   2.039       .  S
O244        C247   1.283       .  A
Cu245      Cu246   2.367       .  S
C247        C264   1.484       .  S
C248        C381   1.476       .  S
C249        C395   1.492       .  S
C250        C261   1.489       .  S
O251       Cu859   2.025       .  S
O251        C261   1.281       .  A
O252       Cu259   2.029       .  S
O252        C262   1.281       .  A
O253       Cu859   1.998       .  S
O253        C263   1.276       .  A
O254       Cu259   2.020       .  S
O254        C264   1.277       .  A
O255       Cu260   2.038       .  S
O255        C264   1.283       .  A
O256       Cu860   2.031       .  S
O256        C263   1.281       .  A
O257       Cu260   2.042       .  S
O257        C262   1.280       .  A
O258       Cu860   2.043       .  S
O258        C261   1.280       .  A
Cu259      O1451   2.022   1_554  S
Cu259      O1453   2.012   1_554  S
Cu259      Cu260   2.369       .  S
Cu260      O1456   2.035   1_554  S
Cu260      O1458   2.033   1_554  S
O265       Cu273   1.993   1_545  S
O265        C875   1.275       .  A
O266       Cu273   2.021       .  S
O266        C876   1.276       .  A
O267       Cu273   2.001   1_545  S
O267        C877   1.274       .  A
O268       Cu273   2.001       .  S
O268        C878   1.281       .  A
O269       Cu274   2.051       .  S
O269        C278   1.279       .  A
O270       Cu274   2.021   1_545  S
O270        C277   1.282       .  A
O271       Cu274   1.979       .  S
O271        C276   1.277       .  A
O272       Cu274   2.015   1_545  S
O272        C275   1.276       .  A
Cu273      Cu874   2.373       .  S
Cu274     Cu1473   2.371       .  S
C275       C1364   1.466   1_556  S
C275       O1465   1.275       .  A
C276       O1466   1.277       .  A
C276        C364   1.465       .  S
C277       O1467   1.272       .  A
C277        C353   1.463       .  S
C278       O1468   1.279       .  A
O279       Cu287   2.030   1_455  S
O279        C889   1.277       .  A
O280       Cu287   1.995       .  S
O280        C890   1.274       .  A
O281       Cu287   1.990   1_455  S
O281        C891   1.280       .  A
O282       Cu287   1.988       .  S
O282        C892   1.272       .  A
O283       Cu288   2.009       .  S
O283        C292   1.281       .  A
O284       Cu288   2.039   1_455  S
O284        C291   1.278       .  A
O285       Cu288   2.012       .  S
O285        C290   1.275       .  A
O286       Cu288   1.981   1_455  S
O286        C289   1.278       .  A
Cu287      Cu888   2.373       .  S
Cu288     Cu1487   2.375       .  S
C289       O1479   1.276       .  A
C289        C350   1.469       .  S
C290       C1232   1.464   1_556  S
C290       O1480   1.273       .  A
C291       O1481   1.279       .  A
C292       O1482   1.272       .  A
C292        C336   1.463       .  S
O293       Cu301   2.051   1_655  S
O293        C903   1.281       .  A
O294       Cu301   1.997       .  S
O294        C904   1.277       .  A
O295       Cu301   1.975   1_655  S
O295        C905   1.277       .  A
O296       Cu301   1.971       .  S
O296        C906   1.268       .  A
O297       Cu302   2.031       .  S
O297        C306   1.285       .  A
O298       Cu302   2.046   1_654  S
O298        C305   1.279   1_554  A
O299       Cu302   1.995   1_554  S
O299        C304   1.272       .  A
O300       Cu302   1.961   1_655  S
O300        C303   1.274       .  A
Cu301      Cu902   2.368       .  S
Cu302     Cu1501   2.371       .  S
C303       O1493   1.279       .  A
C303        C325   1.469       .  S
C304       C1404   1.462       .  S
C304       O1494   1.278   1_554  A
C305       O1495   1.277       .  A
C306       O1496   1.268       .  A
C306        C367   1.464       .  S
O307       Cu315   2.009       .  S
O307        C917   1.274   1_565  A
O308       Cu315   1.990       .  S
O308        C918   1.274       .  A
O309       Cu315   2.007       .  S
O309        C919   1.284   1_565  A
O310       Cu315   1.996       .  S
O310        C920   1.274       .  A
O311       Cu316   2.009       .  S
O311        C320   1.280       .  A
O312       Cu316   2.037   1_544  S
O312        C319   1.276       .  A
O313       Cu316   2.020   1_554  S
O313        C318   1.277       .  A
O314       Cu316   1.983   1_545  S
O314        C317   1.278       .  A
Cu315      Cu916   2.376       .  S
Cu316     Cu1515   2.375       .  S
C317       O1507   1.274       .  A
C317        C339   1.461       .  S
C318       C1272   1.471       .  S
C318       O1508   1.274   1_554  A
C319       O1509   1.283   1_544  A
C320       O1510   1.273       .  A
C320        C322   1.464       .  S
C321        C326   1.399       .  A
C321        C922   1.401       .  A
C321        H328   1.084       .  S
C322        C323   1.405       .  A
C322       C1521   1.401       .  A
C323        C324   1.399       .  A
C323        N330   1.433       .  S
C324        C325   1.405       .  A
C324        H329   1.085       .  S
C325       C1526   1.410       .  A
C326        C925   1.411       .  A
C326        N327   1.425       .  S
N327        H332   1.045       .  S
N327        H931   1.039       .  S
N330        H333   1.045       .  S
N330        H334   1.046       .  S
H331       N1527   1.042       .  S
C335        C340   1.396       .  A
C335        C936   1.402       .  A
C335        H342   1.084       .  S
C336        C337   1.404       .  A
C336       C1535   1.403       .  A
C337        C338   1.398       .  A
C337        N344   1.432       .  S
C338        C339   1.402       .  A
C338        H343   1.085       .  S
C339       C1540   1.409       .  A
C340        C939   1.409       .  A
C340        N341   1.430       .  S
N341        H345   1.042       .  S
N341        H346   1.045       .  S
N344        H347   1.045       .  S
N344        H348   1.046       .  S
C349        C354   1.399       .  A
C349        C950   1.400       .  A
C349        H356   1.084       .  S
C350        C351   1.406       .  A
C350       C1549   1.401       .  A
C351        C352   1.406       .  A
C351        N358   1.432       .  S
C352        C353   1.401       .  A
C352        H357   1.084       .  S
C353       C1554   1.405       .  A
C354        C953   1.406       .  A
C354        N355   1.428       .  S
N355        H959   1.046       .  S
N355        H960   1.046       .  S
N358       H1561   1.045       .  S
N358       H1562   1.045       .  S
H359       N1555   1.046       .  S
H360       N1555   1.046       .  S
H361        N958   1.046       .  S
H362        N958   1.045       .  S
C363        C364   1.401       .  A
C363        C368   1.402       .  A
C363        H370   1.082       .  S
C364       C1565   1.405       .  A
C365        C366   1.394       .  A
C365        C964   1.404       .  A
C365        N372   1.429       .  S
C366        C967   1.395       .  A
C366        H371   1.084       .  S
C367        C368   1.416       .  A
C367       C1566   1.397       .  A
C368        N369   1.436       .  S
N369       H1573   1.045       .  S
N369       H1574   1.043       .  S
N372        H975   1.045       .  S
N372        H976   1.045       .  S
H373        N969   1.045       .  S
H374        N969   1.044       .  S
H375       N1572   1.045       .  S
H376       N1572   1.046       .  S
C377        C378   1.412       .  A
C377        C382   1.391       .  A
C377        H384   1.076       .  S
C378        C379   1.417       .  A
C379        C380   1.407       .  A
C379        N386   1.433       .  S
C380        C381   1.406       .  A
C380        H385   1.083       .  S
C381        C382   1.406       .  A
C382        N383   1.433       .  S
N383        H387   1.045       .  S
N383        H388   1.045       .  S
N386        H389   1.046       .  S
N386        H390   1.045       .  S
C391        C392   1.400       .  A
C391        C396   1.401       .  A
C391        H398   1.085       .  S
C392        C393   1.409       .  A
C393        C394   1.404       .  A
C393        N400   1.434       .  S
C394        C395   1.405       .  A
C394        H399   1.083       .  S
C395        C396   1.425       .  A
C396        N397   1.433       .  S
N397        H401   1.045       .  S
N397        H402   1.044       .  S
N400        H403   1.042       .  S
N400        H404   1.045       .  S
C405        C406   1.405       .  A
C405        C410   1.400       .  A
C405        H412   1.083       .  S
C406        C407   1.418       .  A
C407        C408   1.414       .  A
C407        N414   1.432       .  S
C408        C409   1.415       .  A
C408        H413   1.083       .  S
C409        C410   1.413       .  A
C410        N411   1.430       .  S
N411        H415   1.046       .  S
N411        H416   1.046       .  S
N414        H417   1.045       .  S
N414        H418   1.046       .  S
C419        C420   1.403       .  A
C419        C424   1.394       .  A
C419        H426   1.084       .  S
C420        C421   1.418       .  A
C421        C422   1.394       .  A
C421        N428   1.439       .  S
C422        C423   1.392       .  A
C422        H427   1.076       .  S
C423        C424   1.413       .  A
C424        N425   1.438       .  S
N425       H1029   1.045       .  S
N425       H1030   1.044       .  S
N428        H431   1.043       .  S
N428        H432   1.046       .  S
H429       N1625   1.045   1_554  S
H430       N1625   1.044   1_554  S
C433        C434   1.413       .  A
C433        C438   1.407       .  A
C433        H440   1.081       .  S
C434        C435   1.416       .  A
C435        C436   1.414       .  A
C435        N442   1.433       .  S
C436        C437   1.411       .  A
C436        H441   1.083       .  S
C437        C438   1.417       .  A
C438        N439   1.433       .  S
N439        H443   1.045       .  S
N439        H444   1.046       .  S
N442       H1645   1.046       .  S
N442       H1646   1.045       .  S
H445       N1042   1.046       .  S
H446       N1042   1.045       .  S
C447        C448   1.394       .  A
C447        C452   1.397       .  A
C447        H454   1.078       .  S
C448        C449   1.408       .  A
C449        C450   1.398       .  A
C449        N456   1.438       .  S
C450        C451   1.404       .  A
C450        H455   1.084       .  S
C451        C452   1.416       .  A
C452        N453   1.438       .  S
N453        H457   1.046       .  S
N453        H458   1.041       .  S
N456        H460   1.044       .  S
N456       H1059   1.043       .  S
H459       N1656   1.044   1_556  S
C461        C462   1.402       .  A
C461        C466   1.396       .  A
C461        H468   1.080       .  S
C462        C463   1.424       .  A
C463        C464   1.378       .  A
C463        N470   1.436       .  S
C464        C465   1.391       .  A
C464        H469   1.085       .  S
C465        C466   1.420       .  A
C466        N467   1.432       .  S
N467        H471   1.046       .  S
N467        H472   1.042       .  S
N470        H473   1.046       .  S
N470        H474   1.046       .  S
C475        C476   1.416       .  A
C475        C480   1.411       .  A
C475        H482   1.083       .  S
C476        C477   1.420       .  A
C477        C478   1.418       .  A
C477        N484   1.436       .  S
C478        C479   1.411       .  A
C478        H483   1.082       .  S
C479        C480   1.404       .  A
C480        N481   1.436       .  S
N481        H485   1.045       .  S
N481        H486   1.046       .  S
N484        H487   1.045       .  S
N484        H488   1.046       .  S
C489        C490   1.407       .  A
C489        C494   1.405       .  A
C489        H496   1.083       .  S
C490        C491   1.414       .  A
C491        C492   1.396       .  A
C491        N498   1.439       .  S
C492        C493   1.405       .  A
C492        H497   1.077       .  S
C493        C494   1.414       .  A
C494        N495   1.434       .  S
N495        H499   1.045       .  S
N495        H500   1.046       .  S
N498        H501   1.045       .  S
N498        H502   1.046       .  S
C503        C504   1.405       .  A
C503        C508   1.410       .  A
C503        H510   1.084       .  S
C504        C505   1.406       .  A
C505        C506   1.406       .  A
C505        N512   1.439       .  S
C506        C507   1.411       .  A
C506        H511   1.083       .  S
C507        C508   1.417       .  A
C508        N509   1.438       .  S
N509        H513   1.046       .  S
N509        H514   1.045       .  S
N512        H515   1.045       .  S
N512        H516   1.046       .  S
C517        C518   1.406       .  A
C517        C522   1.405       .  A
C517        H524   1.084       .  S
C518        C519   1.418       .  A
C519        C520   1.405       .  A
C519        N526   1.438       .  S
C520        C521   1.410       .  A
C520        H525   1.079       .  S
C521        C522   1.413       .  A
C522        N523   1.424       .  S
N523        H527   1.046       .  S
N523        H528   1.045       .  S
N526        H529   1.046       .  S
N526        H530   1.046       .  S
C531        C532   1.400       .  A
C531        C536   1.402       .  A
C531        H538   1.081       .  S
C532        C533   1.402       .  A
C533        C534   1.401       .  A
C533       N1140   1.431       .  S
C534        C535   1.409       .  A
C534        H539   1.083       .  S
C535        C536   1.416       .  A
C536        N537   1.438       .  S
N537        H541   1.046       .  S
N537        H542   1.046       .  S
N540       C1733   1.432       .  S
N540        H543   1.046       .  S
N540        H544   1.046       .  S
C545        C546   1.414       .  A
C545        C550   1.401       .  A
C545        H552   1.079       .  S
C546        C547   1.416       .  A
C547        C548   1.407       .  A
C547        N554   1.429       .  S
C548        C549   1.407       .  A
C548        H553   1.083       .  S
C549        C550   1.412       .  A
C550        N551   1.433       .  S
N551        H555   1.046       .  S
N551        H556   1.045       .  S
N554        H557   1.045       .  S
N554        H558   1.046       .  S
C559        C560   1.397       .  A
C559        C564   1.405       .  A
C559        H566   1.074       .  S
C560        C561   1.411       .  A
C561        C562   1.401       .  A
C561        N568   1.438       .  S
C562        C563   1.403       .  A
C562        H567   1.084       .  S
C563        C564   1.416       .  A
C564        N565   1.438       .  S
N565        H569   1.046       .  S
N565        H570   1.045       .  S
N568        H571   1.046       .  S
N568        H572   1.045       .  S
C573        C574   1.409       .  A
C573        C578   1.411       .  A
C573        H580   1.083       .  S
C574        C575   1.411       .  A
C575        C576   1.387       .  A
C575        N582   1.430       .  S
C576        C577   1.398       .  A
C576        H581   1.084       .  S
C577        C578   1.420       .  A
C578        N579   1.437       .  S
N579        H583   1.046       .  S
N579        H584   1.045       .  S
N582        H585   1.042       .  S
N582        H586   1.045       .  S
C587        C588   1.401       .  A
C587        C592   1.403       .  A
C587        H594   1.083       .  S
C588        C589   1.421       .  A
C589        C590   1.410       .  A
C589        N596   1.432       .  S
C590        C591   1.403       .  A
C590        H595   1.084       .  S
C591        C592   1.410       .  A
C592        N593   1.426       .  S
N593        H597   1.045       .  S
N593        H598   1.046       .  S
N596        H599   1.046       .  S
N596        H600   1.046       .  S
C601        C602   1.529       .  S
C601        C607   1.521       .  S
C601        C605   1.520       .  S
C601       C1174   1.531       .  S
C602        H609   1.084       .  S
C602       C1203   1.374       .  D
C603        C604   1.559       .  S
C604        C608   1.554       .  S
C604        C606   1.555       .  S
C604        H610   1.110       .  S
C605        H611   1.075       .  S
C605       C1206   1.362       .  D
C606        C905   1.480       .  S
C607       H1212   1.088       .  S
C607       C1208   1.348       .  D
C608       C1191   1.474       .  S
O613       Cu621   2.011       .  S
O613        C623   1.275       .  A
O614       Cu621   1.965       .  S
O614        C624   1.270       .  A
O615       Cu621   2.020       .  S
O615        C625   1.284       .  A
O616       Cu621   2.046       .  S
O616        C626   1.284       .  A
O617       Cu622   1.989       .  S
O617        C626   1.273       .  A
O618       Cu622   1.945       .  S
O618        C625   1.267       .  A
O619       Cu622   2.050       .  S
O619        C624   1.287       .  A
O620       Cu622   2.057       .  S
O620        C623   1.286       .  A
Cu621      Cu622   2.368       .  S
C623        C665   1.489       .  S
C624       C1188   1.491       .  S
C625       C1177   1.466       .  S
C626        C664   1.478       .  S
C627        C628   1.542       .  S
C627        C633   1.531       .  S
C627        C631   1.541       .  S
C627       C1146   1.530       .  S
C628        H635   1.084       .  S
C629        C630   1.555       .  S
C629       C1228   1.375       .  D
C629       C1335   1.486       .  S
C630        C634   1.529       .  S
C630        C632   1.550       .  S
C630        H636   1.111       .  S
C631        H637   1.084       .  S
C632       C1231   1.356       .  D
C632       C1490   1.467       .  S
C634       C1233   1.349       .  D
C634       C1160   1.478       .  S
H638       C1233   1.088       .  S
O639       Cu647   2.033       .  S
O639        C649   1.282       .  A
O640       Cu647   2.017       .  S
O640        C650   1.281       .  A
O641       Cu647   1.965       .  S
O641        C651   1.272       .  A
O642       Cu647   2.022       .  S
O642        C652   1.278       .  A
O643       Cu648   2.054       .  S
O643        C652   1.283       .  A
O644       Cu648   2.020       .  S
O644        C651   1.281       .  A
O645       Cu648   1.973       .  S
O645        C650   1.274       .  A
O646       Cu648   2.013       .  S
O646        C649   1.277       .  A
Cu647      Cu648   2.367       .  S
C649        C663   1.482       .  S
C650       C1149   1.489       .  S
C651       C1163   1.474       .  S
C652        C666   1.491       .  S
O653      Cu1261   2.022       .  S
O653        C663   1.279       .  A
O654       Cu661   2.022       .  S
O654        C664   1.282       .  A
O655      Cu1261   2.028       .  S
O655        C665   1.278       .  A
O656       Cu661   2.032       .  S
O656        C666   1.281       .  A
O657       Cu662   2.042       .  S
O657        C666   1.281       .  A
O658      Cu1262   2.041       .  S
O658        C665   1.284       .  A
O659       Cu662   2.020       .  S
O659        C664   1.277       .  A
O660      Cu1262   2.028       .  S
O660        C663   1.281       .  A
Cu661      Cu662   2.370       .  S
C667        C668   1.545       .  S
C667        C673   1.539       .  S
C667        C671   1.546       .  S
C667       C1121   1.530       .  S
C668        H675   1.084       .  S
C669        C670   1.553       .  S
C669       C1268   1.372       .  D
C669       C1203   1.488       .  S
C670        C674   1.525       .  S
C670        C672   1.545       .  S
C670        H676   1.111       .  S
C671        H677   1.084       .  S
C672       C1271   1.365       .  D
C672       C1518   1.474       .  S
C674       C1273   1.340       .  D
C674       C1132   1.467       .  S
H678       C1273   1.087       .  S
O679       Cu687   2.027       .  S
O679        C689   1.279       .  A
O680       Cu687   1.989       .  S
O680        C690   1.276       .  A
O681       Cu687   1.972       .  S
O681        C691   1.274       .  A
O682       Cu687   1.994       .  S
O682        C692   1.276       .  A
O683       Cu688   2.034       .  S
O683        C692   1.281       .  A
O684       Cu688   2.012       .  S
O684        C691   1.281       .  A
O685       Cu688   1.993       .  S
O685        C690   1.277       .  A
O686       Cu688   2.054       .  S
O686        C689   1.283       .  A
Cu687      Cu688   2.367       .  S
C689        C732   1.492       .  S
C690       C1135   1.481       .  S
C691       C1118   1.491       .  S
C692        C729   1.478       .  S
C693        C694   1.526       .  S
C693        C699   1.523       .  S
C693        C697   1.518       .  S
C693       C1093   1.524       .  S
C694        H701   1.084       .  S
C694       C1295   1.374       .  D
C695        C696   1.561       .  S
C696        C700   1.544       .  S
C696        C698   1.563       .  S
C696        H702   1.110       .  S
C697        H703   1.081       .  S
C697       C1298   1.360       .  D
C698        C878   1.487       .  S
C699       H1304   1.089       .  S
C699       C1300   1.349       .  D
C700       C1104   1.470       .  S
O705       Cu713   2.007       .  S
O705        C715   1.275       .  A
O706       Cu713   1.957       .  S
O706        C716   1.271       .  A
O707       Cu713   2.032       .  S
O707        C717   1.283       .  A
O708       Cu713   2.042       .  S
O708        C718   1.283       .  A
O709       Cu714   2.010       .  S
O709        C718   1.276       .  A
O710       Cu714   1.981       .  S
O710        C717   1.274       .  A
O711       Cu714   2.001       .  S
O711        C716   1.280       .  A
O712       Cu714   2.037       .  S
O712        C715   1.283       .  A
Cu713      Cu714   2.369       .  S
C715        C730   1.480       .  S
C716       C1090   1.472       .  S
C717       C1107   1.489       .  S
C718        C731   1.483       .  S
O719      Cu1327   2.034       .  S
O719        C729   1.280       .  A
O720       Cu727   2.034       .  S
O720        C730   1.282       .  A
O721      Cu1327   2.030       .  S
O721        C731   1.279       .  A
O722       Cu727   2.044       .  S
O722        C732   1.281       .  A
O723       Cu728   2.036       .  S
O723        C732   1.281       .  A
O724      Cu1328   2.025       .  S
O724        C731   1.281       .  A
O725       Cu728   2.015       .  S
O725        C730   1.277       .  A
O726      Cu1328   2.007       .  S
O726        C729   1.278       .  A
Cu727      Cu728   2.370       .  S
C733        C734   1.542       .  S
C733        C739   1.497       .  S
C733        C737   1.506       .  S
C733       C1062   1.507       .  S
C734        H741   1.084       .  S
C734       C1335   1.378       .  D
C735        C736   1.563       .  S
C736        C740   1.558       .  S
C736        C738   1.570       .  S
C736        H742   1.110       .  S
C737        H743   1.088       .  S
C737       C1338   1.360       .  D
C738        C919   1.489       .  S
C739       H1344   1.089       .  S
C739       C1340   1.347       .  D
C740       C1079   1.481       .  S
O745       Cu753   1.989       .  S
O745        C755   1.275       .  A
O746       Cu753   1.983       .  S
O746        C756   1.275       .  A
O747       Cu753   1.974       .  S
O747        C757   1.279       .  A
O748       Cu753   2.026       .  S
O748        C758   1.281       .  A
O749       Cu754   2.045       .  S
O749        C758   1.280       .  A
O750       Cu754   1.960       .  S
O750        C757   1.269       .  A
O751       Cu754   2.050       .  S
O751        C756   1.286       .  A
O752       Cu754   2.051       .  S
O752        C755   1.284       .  A
Cu753      Cu754   2.367       .  S
C755        C797   1.483       .  S
C756       C1076   1.507       .  S
C757       C1065   1.461       .  S
C758        C796   1.489       .  S
C759        C760   1.552       .  S
C759        C765   1.532       .  S
C759        C763   1.542       .  S
C759       C1034   1.531       .  S
C760        H767   1.080       .  S
C761        C762   1.549       .  S
C761       C1360   1.378       .  D
C761       C1427   1.488       .  S
C762        C766   1.522       .  S
C762        C764   1.537       .  S
C762        H768   1.111       .  S
C763        H769   1.085       .  S
C764       C1363   1.360       .  D
C764       C1475   1.459       .  S
C766       C1365   1.337       .  D
C766       C1048   1.465       .  S
H770       C1365   1.084       .  S
O771       Cu779   2.035       .  S
O771        C781   1.281       .  A
O772       Cu779   1.993       .  S
O772        C782   1.277       .  A
O773       Cu779   1.977       .  S
O773        C783   1.274       .  A
O774       Cu779   1.987       .  S
O774        C784   1.276       .  A
O775       Cu780   2.023       .  S
O775        C784   1.280       .  A
O776       Cu780   2.016       .  S
O776        C783   1.282       .  A
O777       Cu780   1.977       .  S
O777        C782   1.275       .  A
O778       Cu780   2.046       .  S
O778        C781   1.281       .  A
Cu779      Cu780   2.370       .  S
C781        C798   1.492       .  S
C782       C1051   1.469       .  S
C783       C1037   1.491       .  S
C784        C795   1.471       .  S
O785      Cu1393   2.025       .  S
O785        C795   1.279       .  A
O786       Cu793   2.056       .  S
O786        C796   1.284       .  A
O787      Cu1393   2.042       .  S
O787        C797   1.280       .  A
O788       Cu793   2.055       .  S
O788        C798   1.283       .  A
O789       Cu794   2.025       .  S
O789        C798   1.279       .  A
O790      Cu1394   2.007       .  S
O790        C797   1.280       .  A
O791       Cu794   2.017       .  S
O791        C796   1.278       .  A
O792      Cu1394   1.992       .  S
O792        C795   1.277       .  A
Cu793      Cu794   2.369       .  S
C799        C800   1.553       .  S
C799        C805   1.534       .  S
C799        C803   1.550       .  S
C799       C1009   1.532       .  S
C800        H807   1.085       .  S
C801        C802   1.544       .  S
C801       C1400   1.376       .  D
C801       C1295   1.488       .  S
C802        C806   1.518       .  S
C802        C804   1.534       .  S
C802        H808   1.107       .  S
C803        H809   1.080       .  S
C804       C1403   1.364       .  D
C804       C1504   1.464       .  S
C806       C1405   1.339       .  D
C806       C1023   1.462       .  S
H810       C1405   1.087       .  S
O811       Cu819   1.973       .  S
O811        C821   1.273       .  A
O812       Cu819   2.020       .  S
O812        C822   1.278       .  A
O813       Cu819   2.004       .  S
O813        C823   1.278       .  A
O814       Cu819   1.992       .  S
O814        C824   1.279       .  A
O815       Cu820   2.013       .  S
O815        C824   1.279       .  A
O816       Cu820   2.035       .  S
O816        C823   1.280       .  A
O817       Cu820   2.067       .  S
O817        C822   1.285       .  A
O818       Cu820   2.003       .  S
O818        C821   1.279       .  A
Cu819      Cu820   2.367       .  S
C821       C1020   1.476       .  S
C822        C862   1.496       .  S
C823        C863   1.480       .  S
C824       C1006   1.497       .  S
C825        C826   1.530       .  S
C825        C831   1.515       .  S
C825        C829   1.520       .  S
C825        C978   1.526       .  S
C826        H833   1.084       .  S
C826       C1427   1.377       .  D
C827        C828   1.561       .  S
C828        C832   1.554       .  S
C828        C830   1.562       .  S
C828        H834   1.110       .  S
C829        H835   1.079       .  S
C829       C1430   1.358       .  D
C830        C891   1.484       .  S
C831       H1436   1.090       .  S
C831       C1432   1.350       .  D
C832        C992   1.478       .  S
O837       Cu845   2.012       .  S
O837        C847   1.275       .  A
O838       Cu845   1.953       .  S
O838        C848   1.270       .  A
O839       Cu845   2.048       .  S
O839        C849   1.286       .  A
O840       Cu845   2.061       .  S
O840        C850   1.286       .  A
O841       Cu846   1.999       .  S
O841        C850   1.275       .  A
O842       Cu846   1.971       .  S
O842        C849   1.270       .  A
O843       Cu846   1.997       .  S
O843        C848   1.280       .  A
O844       Cu846   2.027       .  S
O844        C847   1.282       .  A
Cu845      Cu846   2.367       .  S
C847        C864   1.477       .  S
C848        C981   1.467       .  S
C849        C995   1.495       .  S
C850        C861   1.488       .  S
O851      Cu1459   2.022       .  S
O851        C861   1.281       .  A
O852       Cu859   2.035       .  S
O852        C862   1.282       .  A
O853      Cu1459   2.002       .  S
O853        C863   1.277       .  A
O854       Cu859   2.004       .  S
O854        C864   1.275       .  A
O855       Cu860   2.038       .  S
O855        C864   1.282       .  A
O856      Cu1460   2.042       .  S
O856        C863   1.282       .  A
O857       Cu860   2.054       .  S
O857        C862   1.282       .  A
O858      Cu1460   2.042       .  S
O858        C861   1.280       .  A
Cu859      Cu860   2.369       .  S
O865       Cu873   1.990   1_545  S
O865       C1475   1.275       .  A
O866       Cu873   2.023       .  S
O866       C1476   1.277       .  A
O867       Cu873   1.995   1_545  S
O867       C1477   1.273       .  A
O868       Cu873   1.997       .  S
O868       C1478   1.281       .  A
O869       Cu874   2.045       .  S
O869        C878   1.278       .  A
O870       Cu874   2.019   1_545  S
O870        C877   1.281       .  A
O871       Cu874   1.970       .  S
O871        C876   1.276       .  A
O872       Cu874   2.003   1_545  S
O872        C875   1.274       .  A
Cu873     Cu1474   2.372       .  S
C876        C964   1.463       .  S
C877        C953   1.469       .  S
O879       Cu887   2.036   1_455  S
O879       C1489   1.278       .  A
O880       Cu887   1.997       .  S
O880       C1490   1.275       .  A
O881       Cu887   1.989   1_455  S
O881       C1491   1.279       .  A
O882       Cu887   1.989       .  S
O882       C1492   1.272       .  A
O883       Cu888   2.015       .  S
O883        C892   1.282       .  A
O884       Cu888   2.048   1_455  S
O884        C891   1.279       .  A
O885       Cu888   2.012       .  S
O885        C890   1.275       .  A
O886       Cu888   1.977   1_455  S
O886        C889   1.278       .  A
Cu887     Cu1488   2.374       .  S
C889        C950   1.470       .  S
C892        C936   1.464       .  S
O893       Cu901   2.041   1_655  S
O893       C1503   1.280       .  A
O894       Cu901   2.005       .  S
O894       C1504   1.278       .  A
O895       Cu901   1.980   1_655  S
O895       C1505   1.277       .  A
O896       Cu901   1.973       .  S
O896       C1506   1.268       .  A
O897       Cu902   2.029       .  S
O897        C906   1.285       .  A
O898       Cu902   2.047   1_655  S
O898        C905   1.278       .  A
O899       Cu902   1.993       .  S
O899        C904   1.271       .  A
O900       Cu902   1.966   1_655  S
O900        C903   1.275       .  A
Cu901     Cu1502   2.370       .  S
C903        C925   1.476       .  S
C906        C967   1.462       .  S
O907       Cu915   2.019   1_545  S
O907       C1517   1.276       .  A
O908       Cu915   1.997       .  S
O908       C1518   1.275       .  A
O909       Cu915   1.990       .  S
O909       C1519   1.281   1_565  A
O910       Cu915   1.981       .  S
O910       C1520   1.272       .  A
O911       Cu916   2.007       .  S
O911        C920   1.280       .  A
O912       Cu916   2.032   1_545  S
O912        C919   1.275       .  A
O913       Cu916   2.018       .  S
O913        C918   1.277       .  A
O914       Cu916   1.981   1_545  S
O914        C917   1.278       .  A
Cu915     Cu1516   2.373       .  S
C917        C939   1.459       .  S
C920        C922   1.467       .  S
C921       C1522   1.400       .  A
C921        C926   1.397       .  A
C921        H928   1.084       .  S
C922        C923   1.405       .  A
C923        C924   1.400       .  A
C923        N930   1.433       .  S
C924        C925   1.406       .  A
C924        H929   1.084       .  S
C926       C1525   1.410       .  A
C926        N927   1.425       .  S
N927       H1531   1.041       .  S
N927        H932   1.045       .  S
N930        H933   1.045       .  S
N930        H934   1.046       .  S
C935       C1536   1.402       .  A
C935        C940   1.397       .  A
C935        H942   1.085       .  S
C936        C937   1.411       .  A
C937        C938   1.397       .  A
C937        N944   1.437       .  S
C938        C939   1.401       .  A
C938        H943   1.085       .  S
C940       C1539   1.410       .  A
C940        N941   1.430       .  S
N941        H945   1.044       .  S
N941        H946   1.044       .  S
N944        H947   1.044       .  S
N944        H948   1.045       .  S
C949       C1550   1.402       .  A
C949        C954   1.400       .  A
C949        H956   1.084       .  S
C950        C951   1.407       .  A
C951        C952   1.409       .  A
C951        N958   1.433       .  S
C952        C953   1.403       .  A
C952        H957   1.084       .  S
C954       C1553   1.404       .  A
C954        N955   1.430       .  S
N955       H1559   1.045       .  S
N955       H1560   1.046       .  S
H961       N1558   1.046       .  S
H962       N1558   1.045       .  S
C963        C964   1.402       .  A
C963        C968   1.402       .  A
C963        H970   1.081       .  S
C965       C1564   1.405       .  A
C965        C966   1.396       .  A
C965        N972   1.430       .  S
C966       C1567   1.397       .  A
C966        H971   1.084       .  S
C967        C968   1.414       .  A
C968        N969   1.436       .  S
N972       H1575   1.046       .  S
N972       H1576   1.045       .  S
H973       N1569   1.045       .  S
H974       N1569   1.043       .  S
C977        C978   1.411       .  A
C977        C982   1.389       .  A
C977        H984   1.075       .  S
C978        C979   1.416       .  A
C979        C980   1.403       .  A
C979        N986   1.434       .  S
C980        C981   1.404       .  A
C980        H985   1.083       .  S
C981        C982   1.406       .  A
C982        N983   1.434       .  S
N983        H987   1.045       .  S
N983        H988   1.045       .  S
N986        H989   1.046       .  S
N986        H990   1.045       .  S
C991        C992   1.401       .  A
C991        C996   1.401       .  A
C991        H998   1.085       .  S
C992        C993   1.410       .  A
C993        C994   1.407       .  A
C993       N1000   1.432       .  S
C994        C995   1.405       .  A
C994        H999   1.083       .  S
C995        C996   1.426       .  A
C996        N997   1.432       .  S
N997       H1001   1.046       .  S
N997       H1002   1.044       .  S
N1000      H1003   1.043       .  S
N1000      H1004   1.045       .  S
C1005      C1006   1.407       .  A
C1005      C1010   1.402       .  A
C1005      H1012   1.083       .  S
C1006      C1007   1.419       .  A
C1007      C1008   1.416       .  A
C1007      N1014   1.431       .  S
C1008      C1009   1.416       .  A
C1008      H1013   1.083       .  S
C1009      C1010   1.412       .  A
C1010      N1011   1.431       .  S
N1011      H1015   1.045       .  S
N1011      H1016   1.046       .  S
N1014      H1017   1.045       .  S
N1014      H1018   1.046       .  S
C1019      C1020   1.402       .  A
C1019      C1024   1.396       .  A
C1019      H1026   1.084       .  S
C1020      C1021   1.417       .  A
C1021      C1022   1.395       .  A
C1021      N1028   1.433       .  S
C1022      C1023   1.394       .  A
C1022      H1027   1.079       .  S
C1023      C1024   1.415       .  A
C1024      N1025   1.438       .  S
N1025      H1629   1.045       .  S
N1025      H1630   1.044       .  S
N1028      H1031   1.044       .  S
N1028      H1032   1.046       .  S
C1033      C1034   1.414       .  A
C1033      C1038   1.405       .  A
C1033      H1040   1.081       .  S
C1034      C1035   1.414       .  A
C1035      C1036   1.412       .  A
C1035      N1042   1.432       .  S
C1036      C1037   1.409       .  A
C1036      H1041   1.083       .  S
C1037      C1038   1.415       .  A
C1038      N1039   1.433       .  S
N1039      H1043   1.045       .  S
N1039      H1044   1.046       .  S
H1045      N1642   1.045       .  S
H1046      N1642   1.045       .  S
C1047      C1048   1.395       .  A
C1047      C1052   1.398       .  A
C1047      H1054   1.076       .  S
C1048      C1049   1.409       .  A
C1049      C1050   1.398       .  A
C1049      N1056   1.438       .  S
C1050      C1051   1.403       .  A
C1050      H1055   1.084       .  S
C1051      C1052   1.415       .  A
C1052      N1053   1.438       .  S
N1053      H1057   1.046       .  S
N1053      H1058   1.043       .  S
N1056      H1659   1.043       .  S
N1056      H1060   1.045       .  S
C1061      C1062   1.400       .  A
C1061      C1066   1.396       .  A
C1061      H1068   1.080       .  S
C1062      C1063   1.425       .  A
C1063      C1064   1.379       .  A
C1063      N1070   1.436       .  S
C1064      C1065   1.391       .  A
C1064      H1069   1.085       .  S
C1065      C1066   1.421       .  A
C1066      N1067   1.432       .  S
N1067      H1071   1.046       .  S
N1067      H1072   1.042       .  S
N1070      H1073   1.045       .  S
N1070      H1074   1.046       .  S
C1075      C1076   1.416       .  A
C1075      C1080   1.412       .  A
C1075      H1082   1.083       .  S
C1076      C1077   1.419       .  A
C1077      C1078   1.418       .  A
C1077      N1084   1.436       .  S
C1078      C1079   1.410       .  A
C1078      H1083   1.083       .  S
C1079      C1080   1.407       .  A
C1080      N1081   1.437       .  S
N1081      H1085   1.045       .  S
N1081      H1086   1.046       .  S
N1084      H1087   1.046       .  S
N1084      H1088   1.046       .  S
C1089      C1090   1.407       .  A
C1089      C1094   1.404       .  A
C1089      H1096   1.083       .  S
C1090      C1091   1.413       .  A
C1091      C1092   1.396       .  A
C1091      N1098   1.439       .  S
C1092      C1093   1.407       .  A
C1092      H1097   1.077       .  S
C1093      C1094   1.414       .  A
C1094      N1095   1.433       .  S
N1095      H1099   1.045       .  S
N1095      H1100   1.046       .  S
N1098      H1101   1.045       .  S
N1098      H1102   1.046       .  S
C1103      C1104   1.402       .  A
C1103      C1108   1.408       .  A
C1103      H1110   1.084       .  S
C1104      C1105   1.409       .  A
C1105      C1106   1.404       .  A
C1105      N1112   1.440       .  S
C1106      C1107   1.408       .  A
C1106      H1111   1.083       .  S
C1107      C1108   1.417       .  A
C1108      N1109   1.438       .  S
N1109      H1113   1.046       .  S
N1109      H1114   1.044       .  S
N1112      H1115   1.045       .  S
N1112      H1116   1.046       .  S
C1117      C1118   1.410       .  A
C1117      C1122   1.408       .  A
C1117      H1124   1.083       .  S
C1118      C1119   1.420       .  A
C1119      C1120   1.408       .  A
C1119      N1126   1.438       .  S
C1120      C1121   1.412       .  A
C1120      H1125   1.080       .  S
C1121      C1122   1.410       .  A
C1122      N1123   1.428       .  S
N1123      H1127   1.046       .  S
N1123      H1128   1.044       .  S
N1126      H1129   1.046       .  S
N1126      H1130   1.046       .  S
C1131      C1132   1.398       .  A
C1131      C1136   1.399       .  A
C1131      H1138   1.078       .  S
C1132      C1133   1.402       .  A
C1133      C1134   1.400       .  A
C1133      N1740   1.432       .  S
C1134      C1135   1.408       .  A
C1134      H1139   1.083       .  S
C1135      C1136   1.417       .  A
C1136      N1137   1.439       .  S
N1137      H1141   1.046       .  S
N1137      H1142   1.046       .  S
N1140      H1143   1.046       .  S
N1140      H1144   1.045       .  S
C1145      C1146   1.412       .  A
C1145      C1150   1.402       .  A
C1145      H1152   1.079       .  S
C1146      C1147   1.416       .  A
C1147      C1148   1.408       .  A
C1147      N1154   1.430       .  S
C1148      C1149   1.408       .  A
C1148      H1153   1.083       .  S
C1149      C1150   1.414       .  A
C1150      N1151   1.433       .  S
N1151      H1155   1.046       .  S
N1151      H1156   1.046       .  S
N1154      H1157   1.046       .  S
N1154      H1158   1.046       .  S
C1159      C1160   1.396       .  A
C1159      C1164   1.404       .  A
C1159      H1166   1.075       .  S
C1160      C1161   1.409       .  A
C1161      C1162   1.400       .  A
C1161      N1168   1.438       .  S
C1162      C1163   1.404       .  A
C1162      H1167   1.084       .  S
C1163      C1164   1.415       .  A
C1164      N1165   1.437       .  S
N1165      H1169   1.046       .  S
N1165      H1170   1.045       .  S
N1168      H1171   1.046       .  S
N1168      H1172   1.046       .  S
C1173      C1174   1.409       .  A
C1173      C1178   1.409       .  A
C1173      H1180   1.084       .  S
C1174      C1175   1.410       .  A
C1175      C1176   1.392       .  A
C1175      N1182   1.430       .  S
C1176      C1177   1.400       .  A
C1176      H1181   1.084       .  S
C1177      C1178   1.416       .  A
C1178      N1179   1.437       .  S
N1179      H1183   1.046       .  S
N1179      H1184   1.045       .  S
N1182      H1185   1.044       .  S
N1182      H1186   1.046       .  S
C1187      C1188   1.402       .  A
C1187      C1192   1.403       .  A
C1187      H1194   1.083       .  S
C1188      C1189   1.422       .  A
C1189      C1190   1.409       .  A
C1189      N1196   1.438       .  S
C1190      C1191   1.401       .  A
C1190      H1195   1.084       .  S
C1191      C1192   1.409       .  A
C1192      N1193   1.430       .  S
N1193      H1197   1.044       .  S
N1193      H1198   1.046       .  S
N1196      H1199   1.046       .  S
N1196      H1200   1.046       .  S
C1201      C1202   1.527       .  S
C1201      C1207   1.519   1_556  S
C1201      C1205   1.520       .  S
C1201      C1774   1.527       .  S
C1202      H1209   1.084       .  S
C1203      C1204   1.561       .  S
C1204      C1208   1.558       .  S
C1204      C1206   1.557       .  S
C1204      H1210   1.110       .  S
C1205      H1211   1.074       .  S
C1206      C1505   1.487       .  S
C1208      C1791   1.482       .  S
O1213     Cu1221   2.004       .  S
O1213      C1223   1.275       .  A
O1214     Cu1221   1.978       .  S
O1214      C1224   1.272       .  A
O1215     Cu1221   2.007       .  S
O1215      C1225   1.282       .  A
O1216     Cu1221   2.044       .  S
O1216      C1226   1.283       .  A
O1217     Cu1222   1.999       .  S
O1217      C1226   1.274       .  A
O1218     Cu1222   1.943       .  S
O1218      C1225   1.266       .  A
O1219     Cu1222   2.055       .  S
O1219      C1224   1.287       .  A
O1220     Cu1222   2.055       .  S
O1220      C1223   1.286       .  A
Cu1221    Cu1222   2.370       .  S
C1223      C1265   1.487       .  S
C1224      C1788   1.495       .  S
C1225      C1777   1.456       .  S
C1226      C1264   1.480       .  S
C1227      C1228   1.542       .  S
C1227      C1233   1.534       .  S
C1227      C1231   1.537       .  S
C1227      C1746   1.528       .  S
C1228      H1235   1.084       .  S
C1229      C1230   1.551       .  S
C1230      C1234   1.531       .  S
C1230      C1232   1.550       .  S
C1230      H1236   1.111   1_554  S
C1231      H1237   1.084       .  S
C1234      C1760   1.480   1_554  S
O1239     Cu1247   2.033       .  S
O1239      C1249   1.281       .  A
O1240     Cu1247   2.011       .  S
O1240      C1250   1.281       .  A
O1241     Cu1247   1.972       .  S
O1241      C1251   1.273       .  A
O1242     Cu1247   2.027       .  S
O1242      C1252   1.279       .  A
O1243     Cu1248   2.056       .  S
O1243      C1252   1.284       .  A
O1244     Cu1248   2.022       .  S
O1244      C1251   1.281       .  A
O1245     Cu1248   1.967       .  S
O1245      C1250   1.273       .  A
O1246     Cu1248   2.009       .  S
O1246      C1249   1.277       .  A
Cu1247    Cu1248   2.368       .  S
C1249      C1263   1.480       .  S
C1250      C1749   1.484       .  S
C1251      C1763   1.476       .  S
C1252      C1266   1.495       .  S
O1253      C1263   1.280       .  A
O1254     Cu1261   2.020       .  S
O1254      C1264   1.281       .  A
O1255      C1265   1.278       .  A
O1256     Cu1261   2.034       .  S
O1256      C1266   1.281       .  A
O1257     Cu1262   2.049       .  S
O1257      C1266   1.282       .  A
O1258      C1265   1.283       .  A
O1259     Cu1262   2.027       .  S
O1259      C1264   1.278       .  A
O1260      C1263   1.279       .  A
Cu1261    Cu1262   2.369       .  S
C1267      C1268   1.544       .  S
C1267      C1273   1.536       .  S
C1267      C1271   1.548       .  S
C1267      C1721   1.530       .  S
C1268      H1275   1.084       .  S
C1269      C1270   1.555       .  S
C1270      C1274   1.528       .  S
C1270      C1272   1.547       .  S
C1270      H1276   1.111   1_554  S
C1271      H1277   1.084       .  S
C1274      C1732   1.471   1_554  S
O1279     Cu1287   2.024       .  S
O1279      C1289   1.279       .  A
O1280     Cu1287   1.992       .  S
O1280      C1290   1.277       .  A
O1281     Cu1287   1.965       .  S
O1281      C1291   1.272       .  A
O1282     Cu1287   1.994       .  S
O1282      C1292   1.276       .  A
O1283     Cu1288   2.037       .  S
O1283      C1292   1.282       .  A
O1284     Cu1288   2.006       .  S
O1284      C1291   1.281       .  A
O1285     Cu1288   1.995       .  S
O1285      C1290   1.277       .  A
O1286     Cu1288   2.050       .  S
O1286      C1289   1.282       .  A
Cu1287    Cu1288   2.367       .  S
C1289      C1332   1.490       .  S
C1290      C1735   1.484       .  S
C1291      C1718   1.488       .  S
C1292      C1329   1.478       .  S
C1293      C1294   1.528       .  S
C1293      C1299   1.523       .  S
C1293      C1297   1.518       .  S
C1293      C1693   1.525       .  S
C1294      H1301   1.084       .  S
C1295      C1296   1.563       .  S
C1296      C1300   1.548       .  S
C1296      C1298   1.567       .  S
C1296      H1302   1.110       .  S
C1297      H1303   1.081       .  S
C1298      C1478   1.487       .  S
C1300      C1704   1.478       .  S
O1305     Cu1313   2.004       .  S
O1305      C1315   1.275       .  A
O1306     Cu1313   1.952       .  S
O1306      C1316   1.270       .  A
O1307     Cu1313   2.037       .  S
O1307      C1317   1.284       .  A
O1308     Cu1313   2.051       .  S
O1308      C1318   1.283       .  A
O1309     Cu1314   2.029       .  S
O1309      C1318   1.279       .  A
O1310     Cu1314   1.990       .  S
O1310      C1317   1.276       .  A
O1311     Cu1314   2.005       .  S
O1311      C1316   1.280       .  A
O1312     Cu1314   2.044       .  S
O1312      C1315   1.283       .  A
Cu1313    Cu1314   2.366       .  S
C1315      C1330   1.481       .  S
C1316      C1690   1.473       .  S
C1317      C1707   1.498       .  S
C1318      C1331   1.494       .  S
O1319      C1329   1.279       .  A
O1320     Cu1327   2.033       .  S
O1320      C1330   1.283       .  A
O1321      C1331   1.282       .  A
O1322     Cu1327   2.040       .  S
O1322      C1332   1.281       .  A
O1323     Cu1328   2.030       .  S
O1323      C1332   1.281       .  A
O1324      C1331   1.281       .  A
O1325     Cu1328   2.016       .  S
O1325      C1330   1.277       .  A
O1326      C1329   1.279       .  A
Cu1327    Cu1328   2.370       .  S
C1333      C1334   1.541       .  S
C1333      C1339   1.498   1_556  S
C1333      C1337   1.509       .  S
C1333      C1662   1.505       .  S
C1334      H1341   1.084       .  S
C1335      C1336   1.559       .  S
C1336      C1340   1.556       .  S
C1336      C1338   1.566       .  S
C1336      H1342   1.110       .  S
C1337      H1343   1.088       .  S
C1338      C1519   1.485       .  S
C1340      C1679   1.479       .  S
O1345     Cu1353   1.983       .  S
O1345      C1355   1.274       .  A
O1346     Cu1353   1.976       .  S
O1346      C1356   1.274       .  A
O1347     Cu1353   1.965       .  S
O1347      C1357   1.278       .  A
O1348     Cu1353   2.009       .  S
O1348      C1358   1.278       .  A
O1349     Cu1354   2.045       .  S
O1349      C1358   1.280       .  A
O1350     Cu1354   1.959       .  S
O1350      C1357   1.269       .  A
O1351     Cu1354   2.054       .  S
O1351      C1356   1.286       .  A
O1352     Cu1354   2.056       .  S
O1352      C1355   1.285       .  A
Cu1353    Cu1354   2.368       .  S
C1355      C1397   1.484       .  S
C1356      C1676   1.507       .  S
C1357      C1665   1.456       .  S
C1358      C1396   1.481       .  S
C1359      C1360   1.549       .  S
C1359      C1365   1.533       .  S
C1359      C1363   1.543       .  S
C1359      C1634   1.529       .  S
C1360      H1367   1.081       .  S
C1361      C1362   1.544   1_554  S
C1362      C1366   1.519   1_556  S
C1362      C1364   1.540   1_556  S
C1362      H1368   1.111       .  S
C1363      H1369   1.085       .  S
C1366      C1648   1.461   1_554  S
O1371     Cu1379   2.036       .  S
O1371      C1381   1.281       .  A
O1372     Cu1379   1.996       .  S
O1372      C1382   1.277       .  A
O1373     Cu1379   1.973       .  S
O1373      C1383   1.273       .  A
O1374     Cu1379   1.986       .  S
O1374      C1384   1.275       .  A
O1375     Cu1380   2.035       .  S
O1375      C1384   1.281       .  A
O1376     Cu1380   2.021       .  S
O1376      C1383   1.283       .  A
O1377     Cu1380   1.982       .  S
O1377      C1382   1.275       .  A
O1378     Cu1380   2.051       .  S
O1378      C1381   1.282       .  A
Cu1379    Cu1380   2.369       .  S
C1381      C1398   1.496       .  S
C1382      C1651   1.472       .  S
C1383      C1637   1.491       .  S
C1384      C1395   1.475       .  S
O1385      C1395   1.280       .  A
O1386     Cu1393   2.044       .  S
O1386      C1396   1.282       .  A
O1387      C1397   1.280       .  A
O1388     Cu1393   2.061       .  S
O1388      C1398   1.284       .  A
O1389     Cu1394   2.029       .  S
O1389      C1398   1.279       .  A
O1390      C1397   1.280       .  A
O1391     Cu1394   2.008       .  S
O1391      C1396   1.277       .  A
O1392      C1395   1.277       .  A
Cu1393    Cu1394   2.370       .  S
C1399      C1400   1.552       .  S
C1399      C1405   1.534       .  S
C1399      C1403   1.550       .  S
C1399      C1609   1.532       .  S
C1400      H1407   1.085       .  S
C1401      C1402   1.539       .  S
C1402      C1406   1.515       .  S
C1402      C1404   1.531       .  S
C1402      H1408   1.108   1_554  S
C1403      H1409   1.080       .  S
C1406      C1623   1.455   1_554  S
O1411     Cu1419   1.965       .  S
O1411      C1421   1.272       .  A
O1412     Cu1419   2.015       .  S
O1412      C1422   1.278       .  A
O1413     Cu1419   2.007       .  S
O1413      C1423   1.278       .  A
O1414     Cu1419   1.995       .  S
O1414      C1424   1.279       .  A
O1415     Cu1420   2.014       .  S
O1415      C1424   1.279       .  A
O1416     Cu1420   2.033       .  S
O1416      C1423   1.280       .  A
O1417     Cu1420   2.055       .  S
O1417      C1422   1.283       .  A
O1418     Cu1420   1.989       .  S
O1418      C1421   1.278       .  A
Cu1419    Cu1420   2.367       .  S
C1421      C1620   1.471       .  S
C1422      C1462   1.488       .  S
C1423      C1463   1.481       .  S
C1424      C1606   1.497       .  S
C1425      C1426   1.536       .  S
C1425      C1431   1.514       .  S
C1425      C1429   1.519       .  S
C1425      C1578   1.531       .  S
C1426      H1433   1.084       .  S
C1427      C1428   1.561       .  S
C1428      C1432   1.550       .  S
C1428      C1430   1.556       .  S
C1428      H1434   1.110       .  S
C1429      H1435   1.080       .  S
C1430      C1491   1.479       .  S
C1432      C1592   1.473       .  S
O1437     Cu1445   2.015       .  S
O1437      C1447   1.276       .  A
O1438     Cu1445   1.961       .  S
O1438      C1448   1.271       .  A
O1439     Cu1445   2.037       .  S
O1439      C1449   1.285       .  A
O1440     Cu1445   2.054       .  S
O1440      C1450   1.285       .  A
O1441     Cu1446   2.001       .  S
O1441      C1450   1.275       .  A
O1442     Cu1446   1.963       .  S
O1442      C1449   1.269       .  A
O1443     Cu1446   2.012       .  S
O1443      C1448   1.282       .  A
O1444     Cu1446   2.040       .  S
O1444      C1447   1.284       .  A
Cu1445    Cu1446   2.366       .  S
C1447      C1464   1.485       .  S
C1448      C1581   1.478       .  S
C1449      C1595   1.489       .  S
C1450      C1461   1.485       .  S
O1451      C1461   1.281       .  A
O1452     Cu1459   2.024       .  S
O1452      C1462   1.280       .  A
O1453      C1463   1.279       .  A
O1454     Cu1459   2.013       .  S
O1454      C1464   1.276       .  A
O1455     Cu1460   2.048       .  S
O1455      C1464   1.284       .  A
O1456      C1463   1.281       .  A
O1457     Cu1460   2.044       .  S
O1457      C1462   1.281       .  A
O1458      C1461   1.279       .  A
Cu1459    Cu1460   2.369       .  S
O1465     Cu1473   1.993   1_545  S
O1466     Cu1473   2.024       .  S
O1467     Cu1473   1.987   1_545  S
O1468     Cu1473   1.990       .  S
O1469     Cu1474   2.051       .  S
O1469      C1478   1.279       .  A
O1470     Cu1474   2.020   1_545  S
O1470      C1477   1.282       .  A
O1471     Cu1474   1.967       .  S
O1471      C1476   1.276       .  A
O1472     Cu1474   1.998   1_545  S
O1472      C1475   1.273       .  A
C1476      C1564   1.464       .  S
C1477      C1553   1.466       .  S
O1479     Cu1487   2.026   1_455  S
O1480     Cu1487   1.986       .  S
O1481     Cu1487   1.986   1_455  S
O1482     Cu1487   1.989       .  S
O1483     Cu1488   2.008       .  S
O1483      C1492   1.281       .  A
O1484     Cu1488   2.040   1_455  S
O1484      C1491   1.278       .  A
O1485     Cu1488   2.008       .  S
O1485      C1490   1.275       .  A
O1486     Cu1488   1.975   1_455  S
O1486      C1489   1.277       .  A
C1489      C1550   1.471       .  S
C1492      C1536   1.464       .  S
O1493     Cu1501   2.039   1_655  S
O1494     Cu1501   2.002       .  S
O1495     Cu1501   1.976   1_655  S
O1496     Cu1501   1.971       .  S
O1497     Cu1502   2.033       .  S
O1497      C1506   1.285       .  A
O1498     Cu1502   2.055   1_655  S
O1498      C1505   1.280       .  A
O1499     Cu1502   1.996       .  S
O1499      C1504   1.272       .  A
O1500     Cu1502   1.963   1_655  S
O1500      C1503   1.274       .  A
C1503      C1525   1.470       .  S
C1506      C1567   1.464       .  S
O1507     Cu1515   2.012   1_545  S
O1508     Cu1515   1.992       .  S
O1509     Cu1515   2.004       .  S
O1510     Cu1515   1.988       .  S
O1511     Cu1516   2.010       .  S
O1511      C1520   1.281       .  A
O1512     Cu1516   2.035   1_545  S
O1512      C1519   1.276       .  A
O1513     Cu1516   2.025       .  S
O1513      C1518   1.277       .  A
O1514     Cu1516   1.984   1_545  S
O1514      C1517   1.277       .  A
C1517      C1539   1.463       .  S
C1520      C1522   1.461       .  S
C1521      C1526   1.397       .  A
C1521      H1528   1.084       .  S
C1522      C1523   1.404       .  A
C1523      C1524   1.399       .  A
C1523      N1530   1.433       .  S
C1524      C1525   1.405       .  A
C1524      H1529   1.084       .  S
C1526      N1527   1.426       .  S
N1527      H1532   1.045       .  S
N1530      H1533   1.045       .  S
N1530      H1534   1.046       .  S
C1535      C1540   1.398       .  A
C1535      H1542   1.084       .  S
C1536      C1537   1.409       .  A
C1537      C1538   1.397       .  A
C1537      N1544   1.437       .  S
C1538      C1539   1.402       .  A
C1538      H1543   1.084       .  S
C1540      N1541   1.431       .  S
N1541      H1545   1.044       .  S
N1541      H1546   1.045       .  S
N1544      H1547   1.045       .  S
N1544      H1548   1.045       .  S
C1549      C1554   1.401       .  A
C1549      H1556   1.084       .  S
C1550      C1551   1.407       .  A
C1551      C1552   1.408       .  A
C1551      N1558   1.432       .  S
C1552      C1553   1.402       .  A
C1552      H1557   1.084       .  S
C1554      N1555   1.428       .  S
C1563      C1564   1.402       .  A
C1563      C1568   1.403       .  A
C1563      H1570   1.082       .  S
C1565      C1566   1.396       .  A
C1565      N1572   1.429       .  S
C1566      H1571   1.084       .  S
C1567      C1568   1.416       .  A
C1568      N1569   1.436       .  S
C1577      C1578   1.413       .  A
C1577      C1582   1.393       .  A
C1577      H1584   1.076       .  S
C1578      C1579   1.415       .  A
C1579      C1580   1.408       .  A
C1579      N1586   1.434       .  S
C1580      C1581   1.408       .  A
C1580      H1585   1.083       .  S
C1581      C1582   1.407       .  A
C1582      N1583   1.434       .  S
N1583      H1587   1.046       .  S
N1583      H1588   1.045       .  S
N1586      H1589   1.046       .  S
N1586      H1590   1.045       .  S
C1591      C1592   1.402       .  A
C1591      C1596   1.400       .  A
C1591      H1598   1.085       .  S
C1592      C1593   1.407       .  A
C1593      C1594   1.405       .  A
C1593      N1600   1.433       .  S
C1594      C1595   1.405       .  A
C1594      H1599   1.083       .  S
C1595      C1596   1.424       .  A
C1596      N1597   1.433       .  S
N1597      H1601   1.046       .  S
N1597      H1602   1.044       .  S
N1600      H1603   1.043       .  S
N1600      H1604   1.046       .  S
C1605      C1606   1.407       .  A
C1605      C1610   1.401       .  A
C1605      H1612   1.082       .  S
C1606      C1607   1.418       .  A
C1607      C1608   1.416       .  A
C1607      N1614   1.431       .  S
C1608      C1609   1.416       .  A
C1608      H1613   1.083       .  S
C1609      C1610   1.411       .  A
C1610      N1611   1.430       .  S
N1611      H1615   1.046       .  S
N1611      H1616   1.046       .  S
N1614      H1617   1.045       .  S
N1614      H1618   1.046       .  S
C1619      C1620   1.404       .  A
C1619      C1624   1.393       .  A
C1619      H1626   1.084       .  S
C1620      C1621   1.419       .  A
C1621      C1622   1.394       .  A
C1621      N1628   1.439       .  S
C1622      C1623   1.392       .  A
C1622      H1627   1.078       .  S
C1623      C1624   1.411       .  A
C1624      N1625   1.438       .  S
N1628      H1631   1.043       .  S
N1628      H1632   1.046       .  S
C1633      C1634   1.413       .  A
C1633      C1638   1.405       .  A
C1633      H1640   1.081       .  S
C1634      C1635   1.414       .  A
C1635      C1636   1.412       .  A
C1635      N1642   1.432       .  S
C1636      C1637   1.410       .  A
C1636      H1641   1.083       .  S
C1637      C1638   1.417       .  A
C1638      N1639   1.433       .  S
N1639      H1643   1.045       .  S
N1639      H1644   1.046       .  S
C1647      C1648   1.392       .  A
C1647      C1652   1.397       .  A
C1647      H1654   1.079       .  S
C1648      C1649   1.410       .  A
C1649      C1650   1.399       .  A
C1649      N1656   1.439   1_556  S
C1650      C1651   1.404       .  A
C1650      H1655   1.084       .  S
C1651      C1652   1.417       .  A
C1652      N1653   1.437       .  S
N1653      H1657   1.045       .  S
N1653      H1658   1.041       .  S
N1656      H1660   1.045       .  S
C1661      C1662   1.401       .  A
C1661      C1666   1.397       .  A
C1661      H1668   1.081       .  S
C1662      C1663   1.424       .  A
C1663      C1664   1.376       .  A
C1663      N1670   1.436       .  S
C1664      C1665   1.389       .  A
C1664      H1669   1.085       .  S
C1665      C1666   1.419       .  A
C1666      N1667   1.432       .  S
N1667      H1671   1.045       .  S
N1667      H1672   1.043       .  S
N1670      H1673   1.045       .  S
N1670      H1674   1.047   1_556  S
C1675      C1676   1.416       .  A
C1675      C1680   1.411       .  A
C1675      H1682   1.083       .  S
C1676      C1677   1.420       .  A
C1677      C1678   1.418       .  A
C1677      N1684   1.436       .  S
C1678      C1679   1.410       .  A
C1678      H1683   1.083       .  S
C1679      C1680   1.406       .  A
C1680      N1681   1.436       .  S
N1681      H1685   1.046       .  S
N1681      H1686   1.045       .  S
N1684      H1687   1.045       .  S
N1684      H1688   1.046       .  S
C1689      C1690   1.407       .  A
C1689      C1694   1.403       .  A
C1689      H1696   1.083       .  S
C1690      C1691   1.414       .  A
C1691      C1692   1.398       .  A
C1691      N1698   1.439       .  S
C1692      C1693   1.409       .  A
C1692      H1697   1.077       .  S
C1693      C1694   1.413       .  A
C1694      N1695   1.434       .  S
N1695      H1699   1.045       .  S
N1695      H1700   1.046       .  S
N1698      H1701   1.045       .  S
N1698      H1702   1.046       .  S
C1703      C1704   1.404       .  A
C1703      C1708   1.409       .  A
C1703      H1710   1.084       .  S
C1704      C1705   1.408       .  A
C1705      C1706   1.409       .  A
C1705      N1712   1.439       .  S
C1706      C1707   1.411       .  A
C1706      H1711   1.083       .  S
C1707      C1708   1.418       .  A
C1708      N1709   1.438       .  S
N1709      H1713   1.046       .  S
N1709      H1714   1.045       .  S
N1712      H1715   1.045       .  S
N1712      H1716   1.045       .  S
C1717      C1718   1.405       .  A
C1717      C1722   1.404       .  A
C1717      H1724   1.083       .  S
C1718      C1719   1.421       .  A
C1719      C1720   1.408       .  A
C1719      N1726   1.438       .  S
C1720      C1721   1.409       .  A
C1720      H1725   1.080       .  S
C1721      C1722   1.414       .  A
C1722      N1723   1.426       .  S
N1723      H1727   1.046       .  S
N1723      H1728   1.045       .  S
N1726      H1729   1.045       .  S
N1726      H1730   1.046       .  S
C1731      C1732   1.398       .  A
C1731      C1736   1.399       .  A
C1731      H1738   1.077       .  S
C1732      C1733   1.404       .  A
C1733      C1734   1.402       .  A
C1734      C1735   1.409       .  A
C1734      H1739   1.083       .  S
C1735      C1736   1.416       .  A
C1736      N1737   1.439       .  S
N1737      H1741   1.045       .  S
N1737      H1742   1.046       .  S
N1740      H1743   1.046       .  S
N1740      H1744   1.046       .  S
C1745      C1746   1.415       .  A
C1745      C1750   1.400       .  A
C1745      H1752   1.079       .  S
C1746      C1747   1.413       .  A
C1747      C1748   1.406       .  A
C1747      N1754   1.430       .  S
C1748      C1749   1.408       .  A
C1748      H1753   1.083       .  S
C1749      C1750   1.411       .  A
C1750      N1751   1.434       .  S
N1751      H1755   1.046       .  S
N1751      H1756   1.046       .  S
N1754      H1757   1.045       .  S
N1754      H1758   1.046       .  S
C1759      C1760   1.397       .  A
C1759      C1764   1.405       .  A
C1759      H1766   1.075       .  S
C1760      C1761   1.411       .  A
C1761      C1762   1.401       .  A
C1761      N1768   1.438   1_556  S
C1762      C1763   1.403       .  A
C1762      H1767   1.084       .  S
C1763      C1764   1.416       .  A
C1764      N1765   1.437       .  S
N1765      H1769   1.046       .  S
N1765      H1770   1.045       .  S
N1768      H1771   1.045   1_554  S
N1768      H1772   1.045       .  S
C1773      C1774   1.411       .  A
C1773      C1778   1.408       .  A
C1773      H1780   1.084       .  S
C1774      C1775   1.409       .  A
C1775      C1776   1.387       .  A
C1775      N1782   1.430       .  S
C1776      C1777   1.398       .  A
C1776      H1781   1.084       .  S
C1777      C1778   1.412       .  A
C1778      N1779   1.437       .  S
N1779      H1783   1.046       .  S
N1779      H1784   1.046       .  S
N1782      H1785   1.043       .  S
N1782      H1786   1.046       .  S
C1787      C1788   1.402       .  A
C1787      C1792   1.406       .  A
C1787      H1794   1.084       .  S
C1788      C1789   1.418       .  A
C1789      C1790   1.409       .  A
C1789      N1796   1.432       .  S
C1790      C1791   1.403       .  A
C1790      H1795   1.084       .  S
C1791      C1792   1.410       .  A
C1792      N1793   1.427       .  S
N1793      H1797   1.045       .  S
N1793      H1798   1.046       .  S
N1796      H1799   1.046       .  S
N1796      H1800   1.046       .  S
