geometry optimzed in LAMMPS
_audit_creation_date              2020-11-30 
_audit_creation_method            'lammps2cif' 
_symmetry_space_group_name_H-M    'P1' 
_symmetry_Int_Tables_number       1 
_symmetry_cell_setting            triclinic 
loop_ 
_symmetry_equiv_pos_as_xyz 
  x,y,z 
_cell_length_a                    37.66730627 
_cell_length_b                    19.93790343379893 
_cell_length_c                    35.01836813402448 
_cell_angle_alpha                 90.18051560333554 
_cell_angle_beta                  89.79815489724021 
_cell_angle_gamma                 89.9772347454097 
loop_ 
_atom_site_label 
_atom_site_type_symbol 
_atom_site_fract_x 
_atom_site_fract_y 
_atom_site_fract_z 
_atom_site_charge 
C1          C  0.10403764  0.16938919  0.35764784     0.02200
C2          C  0.09540123  0.10228671  0.35911670     0.02200
C3          C  0.11745519  0.06174520  0.38304161    -0.18300
C4          C  0.14488276  0.09105410  0.40636667     0.02200
C5          C  0.14769452  0.16365274  0.40656861     0.02200
C6          C  0.12739378  0.20036880  0.38137128    -0.18300
H7          H  0.13006139  0.25457813  0.37965941     0.04200
H8          H  0.11441187  0.00785558  0.38313002     0.04200
O9          O  0.90922936  0.06682055  0.15688401    -0.71800
O10         O  0.98172774  0.06465610  0.23015491    -0.72100
O11         O  0.98053774  0.05414465  0.15416423    -0.71900
O12         O  0.91191839  0.07502899  0.23322152    -0.71900
O13         O  0.90225520  0.46622156  0.23273569    -0.71900
O14         O  0.98118502  0.45079802  0.16593072    -0.71900
O15         O  0.97276702  0.46149096  0.24374453    -0.71800
O16         O  0.91010294  0.45872477  0.15676474    -0.72000
V17         V  0.94582386  0.06321810  0.19370787     1.35200
V18         V  0.94183692  0.46061795  0.19937468     1.35200
C19         C  0.89634207  0.51288272  0.14504281     0.77400
C20         C  0.98658210  0.01649494  0.25261811     0.77500
C21         C  0.99226882  0.50040445  0.14696058     0.77300
C22         C  0.89493407  0.02524324  0.24590143     0.77300
O23         O  0.98032459  0.21212829  0.15428543    -0.71800
O24         O  0.90527705  0.20328119  0.22734489    -0.72100
O25         O  0.90852810  0.22373030  0.15229811    -0.71900
O26         O  0.97707145  0.19083957  0.22837432    -0.71900
O27         O  0.98018891  0.29673316  0.24198220    -0.71900
O28         O  0.91413683  0.33044414  0.16292102    -0.71900
O29         O  0.90917991  0.31009235  0.23809455    -0.71800
O30         O  0.98588225  0.31774184  0.16786850    -0.72000
V31         V  0.94276169  0.20946288  0.19093230     1.35200
V32         V  0.94719479  0.31187787  0.20217721     1.35200
C33         C  0.99736269  0.26631367  0.15068909     0.77400
C34         C  0.89393814  0.25495246  0.24450523     0.77500
C35         C  0.89912344  0.28301778  0.14533537     0.77300
C36         C  0.99088447  0.23758926  0.24727042     0.77300
C37         C  0.10664541  0.41475968  0.05060070     0.02200
C38         C  0.11335710  0.34599170  0.05819089     0.02200
C39         C  0.13882856  0.31147837  0.03661009    -0.18300
C40         C  0.15787672  0.34303744  0.50714984     0.02200
C41         C  0.15216294  0.41334827  0.50038028     0.02200
C42         C  0.12654901  0.44758862  0.02247570    -0.18300
H43         H  0.11999498  0.49919697  0.01654365     0.04200
H44         H  0.14208975  0.25799111  0.04104726     0.04200
C45         C  0.67895074  0.20509100  0.48384302     0.86400
C46         C  0.69313774  0.26568699  0.00661309    -0.53800
C47         C  0.71333645  0.31004759  0.48521655     0.09300
C48         C  0.71682508  0.28867975  0.44234386     0.20300
C49         C  0.65888702  0.24016315  0.45077308    -0.54500
C50         C  0.67827018  0.28629850  0.43036467     0.09500
C51         C  0.71405131  0.17696113  0.46916691    -0.54100
C52         C  0.72931890  0.21259226  0.44083418     0.10000
H53         H  0.69040196  0.27055446  0.03737204     0.14500
H54         H  0.73319454  0.32388056  0.42531232     0.00300
H55         H  0.63106189  0.23037905  0.44487729     0.14800
H56         H  0.72366954  0.12853174  0.47798886     0.14600
C57         C  0.71591194  0.05102959  0.41553132     0.86400
C58         C  0.73678425  0.01633680  0.44766389    -0.53800
C59         C  0.71813085  0.47104232  0.47039793     0.09300
C60         C  0.67898788  0.46863323  0.45891809     0.20300
C61         C  0.70092058  0.99104169  0.39279674    -0.54500
C62         C  0.68114669  0.44692424  0.41589285     0.09500
C63         C  0.68149458  0.07970101  0.43082782    -0.54100
C64         C  0.66638102  0.04369401  0.45892547     0.10000
H65         H  0.76492844  0.02573522  0.45189486     0.14500
H66         H  0.66285187  0.43423136  0.47672554     0.00300
H67         H  0.70453557  0.48447097  0.36328561     0.14800
H68         H  0.67163091  0.12779415  0.42179109     0.14600
C69         C  0.64869210  0.08037619  0.49209395     0.02200
C70         C  0.65471883  0.15100368  0.50360945     0.02200
C71         C  0.63274966  0.17691058  0.03251741    -0.18300
C72         C  0.60704275  0.13840342  0.05077793     0.02200
C73         C  0.60310237  0.06955305  0.04218897     0.02200
C74         C  0.62389815  0.04165872  0.01303067    -0.18300
H75         H  0.61898586  0.98993573  0.00522380     0.04200
H76         H  0.63411899  0.22952402  0.04006745     0.04200
C77         C  0.65773764  0.39627623  0.39676723     0.02200
C78         C  0.66253200  0.32491274  0.39834544     0.02200
C79         C  0.64639227  0.28546442  0.37051338    -0.18300
C80         C  0.62269012  0.31369702  0.34520340     0.02200
C81         C  0.61159512  0.37969471  0.34740297     0.02200
C82         C  0.63147079  0.42230081  0.37175028    -0.18300
H83         H  0.62717794  0.47580644  0.37187861     0.04200
H84         H  0.65033903  0.23151119  0.37014907     0.04200
C85         C  0.29578743  0.40531134  0.35875773     0.02200
C86         C  0.29291833  0.33464740  0.35607233     0.02200
C87         C  0.26984562  0.30048118  0.38068094    -0.18300
C88         C  0.24619180  0.33471804  0.40531907     0.02200
C89         C  0.24497300  0.40775056  0.40260245     0.02200
C90         C  0.27139093  0.44047490  0.38112265    -0.18300
H91         H  0.27329641  0.49465210  0.38239764     0.04200
H92         H  0.26940212  0.24610178  0.37956812     0.04200
C93         C  0.21949569  0.45527881  0.42374162     0.86400
C94         C  0.19532065  0.00751635  0.40123192    -0.53800
C95         C  0.17246153  0.04433725  0.42413171     0.09300
C96         C  0.17761330  0.02713779  0.46808221     0.20300
C97         C  0.23865508  0.00014047  0.45282850    -0.54500
C98         C  0.21816306  0.03986283  0.47576200     0.09500
C99         C  0.19152912  0.41744060  0.44457264    -0.54100
C100        C  0.17311765  0.45108432  0.47101432     0.10000
H101        H  0.19568771  0.01160328  0.37032578     0.14500
H102        H  0.15921357  0.05180865  0.48812417     0.00300
H103        H  0.26744219  0.99998162  0.45486412     0.14800
H104        H  0.17661548  0.38044317  0.42868976     0.14600
C105        C  0.23743338  0.15896820  0.00546680     0.02200
C106        C  0.23607500  0.08542015  0.00551875     0.02200
C107        C  0.25865881  0.05128323  0.03091374    -0.18300
C108        C  0.28236457  0.08549543  0.05456379     0.02200
C109        C  0.28220923  0.15617728  0.05557018     0.02200
C110        C  0.25983414  0.19203025  0.03138536    -0.18300
H111        H  0.26100419  0.24620865  0.03214157     0.04200
H112        H  0.25954943  0.99689821  0.03045724     0.04200
C113        C  0.17170280  0.20812243  0.43027491     0.86400
C114        C  0.15253040  0.25984586  0.45532585    -0.53800
C115        C  0.17454760  0.29623419  0.47847742     0.09300
C116        C  0.21515539  0.27989901  0.47129911     0.20300
C117        C  0.19855548  0.24842333  0.40652295    -0.54500
C118        C  0.22065805  0.28900270  0.42696527     0.09500
C119        C  0.19172781  0.17011206  0.45881516    -0.54100
C120        C  0.21718425  0.20154384  0.47772273     0.10000
H121        H  0.12379597  0.26454318  0.45634684     0.14500
H122        H  0.23343493  0.31058222  0.48885831     0.00300
H123        H  0.19897975  0.24685596  0.37549748     0.14800
H124        H  0.17478396  0.14504422  0.47840652     0.14600
O125        O  0.40864651  0.44675748  0.15910054    -0.71800
O126        O  0.48079662  0.41958844  0.23196048    -0.72100
O127        O  0.41121391  0.43109095  0.23550418    -0.71900
O128        O  0.48025673  0.43563186  0.15562564    -0.71900
O129        O  0.48422248  0.03708697  0.16169381    -0.71900
O130        O  0.41427019  0.03738643  0.24008901    -0.71900
O131        O  0.48517434  0.02334393  0.23946680    -0.71800
O132        O  0.41302875  0.04775636  0.16337066    -0.72000
V133        V  0.44539768  0.43542774  0.19564451     1.35200
V134        V  0.44917352  0.03451054  0.20075692     1.35200
C135        C  0.39672168  0.99825442  0.14912753     0.77400
C136        C  0.49490418  0.46619940  0.25092615     0.77500
C137        C  0.40317256  0.48306863  0.25435901     0.77300
C138        C  0.49273980  0.98487585  0.14345939     0.77300
O139        O  0.48207138  0.27396370  0.15521372    -0.71800
O140        O  0.41433577  0.29904322  0.23473913    -0.72100
O141        O  0.48700137  0.29336303  0.22859562    -0.71900
O142        O  0.41057769  0.28104146  0.15963905    -0.71900
O143        O  0.40908043  0.17369597  0.16911682    -0.71900
O144        O  0.48385967  0.18776301  0.24205103    -0.71900
O145        O  0.41172340  0.19174566  0.24414582    -0.71800
O146        O  0.48105517  0.16739787  0.16735182    -0.72000
V147        V  0.44832384  0.28493083  0.19508027     1.35200
V148        V  0.44641620  0.18203496  0.20525304     1.35200
C149        C  0.49484289  0.21613378  0.15004864     0.77400
C150        C  0.40023716  0.24959039  0.25162505     0.77500
C151        C  0.49937365  0.24361762  0.24599110     0.77300
C152        C  0.39666896  0.22496017  0.15282193     0.77300
C153        C  0.79056025  0.11194449  0.35250507     0.02200
C154        C  0.78960999  0.18267482  0.35452793     0.02200
C155        C  0.76791730  0.21344229  0.38225774    -0.18300
C156        C  0.74546941  0.17525844  0.40638739     0.02200
C157        C  0.74045427  0.10374475  0.39635419     0.02200
C158        C  0.76509094  0.07446119  0.37133002    -0.18300
H159        H  0.76557522  0.02047886  0.36743833     0.04200
H160        H  0.76929690  0.26728349  0.38540607     0.04200
C161        C  0.78403284  0.36908753  0.05202733     0.02200
C162        C  0.78280874  0.43940552  0.04975183     0.02200
C163        C  0.75859331  0.46988801  0.02526948    -0.18300
C164        C  0.73611035  0.43181237  0.50130926     0.02200
C165        C  0.73662048  0.35983261  0.50495707     0.02200
C166        C  0.76087186  0.33049666  0.03037088    -0.18300
H167        H  0.76241944  0.27629621  0.03275153     0.04200
H168        H  0.75865931  0.52419502  0.02341379     0.04200
C169        C  0.33279205  0.20357305  0.14359769    -0.09200
C170        C  0.36588381  0.21940647  0.12758517     0.07000
C171        C  0.36907561  0.22758182  0.08785730    -0.03000
C172        C  0.33995757  0.21385382  0.06440518    -0.07400
C173        C  0.30770644  0.19213717  0.08026822     0.06100
C174        C  0.30354019  0.19125611  0.12019185    -0.02500
Br175      Br  0.25870785  0.17051765  0.14351759    -0.02200
H176        H  0.32991842  0.19939670  0.17430583     0.10000
H177        H  0.34324355  0.21530423  0.03367984     0.08000
Br178      Br  0.41345033  0.25087573  0.06437282    -0.02600
C179        C  0.37281605  0.02473732  0.08483684    -0.09200
C180        C  0.36649160  0.00841494  0.12309701     0.07000
C181        C  0.33120415  0.00545362  0.13642676    -0.03000
C182        C  0.30326558  0.02512116  0.11262697    -0.07400
C183        C  0.31010559  0.04777008  0.07548260     0.06100
C184        C  0.34497316  0.04413438  0.06097433    -0.02500
Br185      Br  0.34377243  0.48929652  0.01152908    -0.02200
H186        H  0.38963164  0.46772307  0.07832632     0.10000
H187        H  0.27642663  0.02618032  0.12378768     0.08000
Br188      Br  0.32006541  0.97776780  0.18730780    -0.02600
C189        C  0.35996255  0.41641563  0.34331527    -0.09200
C190        C  0.32531875  0.44162403  0.33915021     0.07000
C191        C  0.31955958  0.49403472  0.31269631    -0.03000
C192        C  0.34695178  0.51261080  0.28778713    -0.07400
C193        C  0.37920301  0.47783851  0.28745461     0.06100
C194        C  0.38646415  0.43247424  0.31699739    -0.02500
Br195      Br  0.43176820  0.38971639  0.32182628    -0.02200
H196        H  0.36552583  0.37925482  0.36499168     0.10000
H197        H  0.34208082  0.55104249  0.26698714     0.08000
Br198      Br  0.27436894  0.53664415  0.30523430    -0.02600
C199        C  0.33936587  0.24947713  0.33854795    -0.09200
C200        C  0.31407096  0.29700214  0.32705188     0.07000
C201        C  0.31330484  0.31656306  0.28842878    -0.03000
C202        C  0.34178091  0.30075308  0.26445853    -0.07400
C203        C  0.36943080  0.25953159  0.27720815     0.06100
C204        C  0.36618180  0.22846345  0.31324758    -0.02500
Br205      Br  0.39762797  0.15882876  0.32965363    -0.02200
H206        H  0.33927034  0.23114076  0.36763085     0.10000
H207        H  0.34224813  0.32047490  0.23564989     0.08000
Br208      Br  0.27400321  0.36523085  0.26752274    -0.02600
C209        C  0.56633236  0.46712310  0.32747816    -0.09200
C210        C  0.57827666  0.39946263  0.32482723     0.07000
C211        C  0.55621530  0.34898658  0.30364269    -0.03000
C212        C  0.52446075  0.37944727  0.28903114    -0.07400
C213        C  0.52041517  0.44715588  0.28163808     0.06100
C214        C  0.53760556  0.49062300  0.30615029    -0.02500
Br215      Br  0.51505102  0.07120532  0.31656543    -0.02200
H216        H  0.57829085  0.50241515  0.34689112     0.10000
H217        H  0.50078504  0.35134105  0.28432458     0.08000
Br218      Br  0.57988106  0.17065886  0.28766109    -0.02600
C219        C  0.56414224  0.25136783  0.34126055    -0.09200
C220        C  0.60144881  0.27358241  0.32156157     0.07000
C221        C  0.60340597  0.28767562  0.27558288    -0.03000
C222        C  0.56806309  0.27754782  0.25012243    -0.07400
C223        C  0.53143853  0.25250827  0.26974084     0.06100
C224        C  0.52941901  0.24181472  0.31535854    -0.02500
Br225      Br  0.48466782  0.22945949  0.34015163    -0.02200
H226        H  0.56168835  0.24994900  0.37206482     0.10000
H227        H  0.56889836  0.28772705  0.21979504     0.08000
Br228      Br  0.64520040  0.32451731  0.25260215    -0.02600
C229        C  0.52878645  0.23428457  0.09029922    -0.09200
C230        C  0.52645960  0.20522528  0.12654121     0.07000
C231        C  0.55430554  0.16401135  0.13977015    -0.03000
C232        C  0.58261758  0.14892226  0.11575792    -0.07400
C233        C  0.58294836  0.17171765  0.07810032     0.06100
C234        C  0.55667604  0.21717332  0.06573759    -0.02500
Br235      Br  0.55550574  0.25150838  0.01461420    -0.02200
H236        H  0.50779444  0.26687683  0.08024988     0.10000
H237        H  0.60312657  0.11496269  0.12551217     0.08000
Br238      Br  0.55506715  0.12457305  0.18970144    -0.02600
C239        C  0.53904395  0.04979129  0.05470489    -0.09200
C240        C  0.57417061  0.02959892  0.06095599     0.07000
C241        C  0.58090252  0.98338131  0.09063465    -0.03000
C242        C  0.55317853  0.96339693  0.11535404    -0.07400
C243        C  0.51884702  0.99033533  0.11158655     0.06100
C244        C  0.51198068  0.03283152  0.08030836    -0.02100
Br245      Br  0.46406736  0.53119011  0.06501881    -0.02200
H246        H  0.53337443  0.08515173  0.03208281     0.10000
H247        H  0.55915392  0.93130011  0.13939452     0.08000
Br248      Br  0.62803549  0.95243090  0.10117972    -0.02600
C249        C  0.06635246  0.26061920  0.07134794    -0.09200
C250        C  0.09065438  0.30814927  0.08546167     0.07000
C251        C  0.08804126  0.32834310  0.12383623    -0.03000
C252        C  0.05796200  0.31148281  0.14502091    -0.07400
C253        C  0.03117011  0.27097466  0.12932682     0.06100
C254        C  0.03702795  0.24063383  0.09342183    -0.02500
Br255      Br  0.00490550  0.17620408  0.07205681    -0.02200
H256        H  0.06874282  0.24282146  0.04219165     0.10000
H257        H  0.05501187  0.33174968  0.17361486     0.08000
Br258      Br  0.12417987  0.38124317  0.14778196    -0.02600
C259        C  0.86528982  0.27826266  0.30781579    -0.09200
C260        C  0.86334772  0.25034841  0.27092421     0.07000
C261        C  0.83260278  0.21488458  0.26036269    -0.03000
C262        C  0.80584005  0.20375490  0.28719500    -0.07400
C263        C  0.81029068  0.22196285  0.32570613     0.06100
C264        C  0.83916829  0.26381374  0.33544343    -0.02500
Br265      Br  0.84608145  0.29719051  0.38637351    -0.02200
H266        H  0.88833488  0.30738986  0.31594041     0.10000
H267        H  0.78319489  0.17355815  0.27894115     0.08000
Br268      Br  0.82662367  0.17618551  0.21047912    -0.02600
C269        C  0.83617726  0.31102538  0.13721101    -0.09200
C270        C  0.86905526  0.29671973  0.12021898     0.07000
C271        C  0.87217871  0.29649983  0.08021470    -0.03000
C272        C  0.84356183  0.31758968  0.05800008    -0.07400
C273        C  0.81126766  0.33540846  0.07523600     0.06100
C274        C  0.80695437  0.32776285  0.11483002    -0.02500
Br275      Br  0.76156229  0.33690270  0.13906980    -0.02200
H276        H  0.83320697  0.30886085  0.16796667     0.10000
H277        H  0.84670821  0.32165653  0.02732569     0.08000
Br278      Br  0.91452547  0.26814552  0.05467405    -0.02600
C279        C  0.05205032  0.52429989  0.11843285    -0.09200
C280        C  0.01947258  0.49011245  0.11702357     0.07000
C281        C  0.01451807  0.44046948  0.08894900    -0.03000
C282        C  0.04217128  0.42286471  0.06441459    -0.07400
C283        C  0.07612361  0.45020317  0.06908552     0.06100
C284        C  0.08054136  0.50426134  0.09487061    -0.02500
Br285      Br  0.12588461  0.04321564  0.10209281    -0.02200
H286        H  0.05638883  0.05879223  0.13966547     0.10000
H287        H  0.03796955  0.38319813  0.04370627     0.08000
Br288      Br  0.97133089  0.39117531  0.08468135    -0.02600
C289        C  0.83186921  0.51645300  0.13177004    -0.09200
C290        C  0.86673573  0.51202964  0.11783274     0.07000
C291        C  0.87234082  0.50291352  0.07851945    -0.03000
C292        C  0.84384850  0.48482943  0.05516685    -0.07400
C293        C  0.80942922  0.48008239  0.07038474     0.06100
C294        C  0.80307789  0.50217624  0.10794475    -0.02500
Br295      Br  0.75579940  0.51205576  0.12763438    -0.02200
H296        H  0.82812812  0.03357676  0.15754461     0.10000
H297        H  0.84875026  0.47141621  0.02560556     0.08000
Br298      Br  0.91768071  0.51876375  0.05558995    -0.02600
C299        C  0.80767322  0.03696574  0.29834227    -0.09200
C300        C  0.81790827  0.07624013  0.32978356     0.07000
C301        C  0.85423038  0.08676667  0.33687958    -0.03000
C302        C  0.87915732  0.06845107  0.30933189    -0.07400
C303        C  0.86859390  0.03474163  0.27614671     0.06100
C304        C  0.83300571  0.01467800  0.27192856    -0.02500
Br305      Br  0.81740940  0.96112300  0.22962471    -0.02200
H306        H  0.77985321  0.02653458  0.29335401     0.10000
H307        H  0.90687484  0.08080557  0.31370562     0.08000
Br308      Br  0.87094559  0.12435177  0.38397515    -0.02600
C309        C  0.05721352  0.19748129  0.25816463    -0.09200
C310        C  0.01943790  0.22332561  0.27404243     0.07000
C311        C  0.01356668  0.23762569  0.31890248    -0.03000
C312        C  0.04601672  0.23063403  0.34797290    -0.07400
C313        C  0.08460290  0.20748308  0.33199604     0.06100
C314        C  0.09030226  0.19001876  0.28671849    -0.02500
Br315      Br  0.13389730  0.15322337  0.26794016    -0.02200
H316        H  0.06056061  0.18644913  0.22807553     0.10000
H317        H  0.04118012  0.23408874  0.37840493     0.08000
Br318      Br  0.96649742  0.25003792  0.33871245    -0.02600
C319        C  0.05214146  0.01213810  0.33567583    -0.09200
C320        C  0.06319634  0.08042343  0.33461227     0.07000
C321        C  0.04149143  0.12992054  0.31206152    -0.03000
C322        C  0.01002824  0.09931153  0.29699760    -0.07400
C323        C  0.00783543  0.03213947  0.28758749     0.06100
C324        C  0.02492359  0.98807955  0.31175560    -0.02500
Br325      Br  0.00174210  0.40848576  0.32373040    -0.02200
H326        H  0.06427632  0.97714743  0.35515438     0.10000
H327        H  0.98690755  0.12767087  0.28907117     0.08000
Br328      Br  0.06577062  0.30759330  0.29425629    -0.02600
C329        C  0.10402355  0.16935495  0.85764742     0.02200
C330        C  0.09538326  0.10225456  0.85912038     0.02200
C331        C  0.11743813  0.06171126  0.88304385    -0.18300
C332        C  0.14487144  0.09101935  0.90636189     0.02200
C333        C  0.14768894  0.16361561  0.90655747     0.02200
C334        C  0.12738683  0.20033218  0.88136252    -0.18300
H335        H  0.13005800  0.25454108  0.87964666     0.04200
H336        H  0.11439163  0.00782560  0.88313617     0.04200
O337        O  0.90921828  0.06687049  0.65688072    -0.71800
O338        O  0.98171450  0.06467150  0.73015627    -0.72100
O339        O  0.98052587  0.05416999  0.65416426    -0.71900
O340        O  0.91190769  0.07506471  0.73322149    -0.71900
O341        O  0.90223024  0.46624278  0.73272439    -0.71900
O342        O  0.98116519  0.45083144  0.66592575    -0.71900
O343        O  0.97274192  0.46150391  0.74374004    -0.71800
O344        O  0.91008331  0.45876436  0.65675435    -0.72000
V345        V  0.94581196  0.06324901  0.69370709     1.35200
V346        V  0.94181461  0.46064529  0.69936693     1.35200
C347        C  0.89632688  0.51292710  0.64503346     0.77400
C348        C  0.98656975  0.01649960  0.75261127     0.77500
C349        C  0.99225494  0.50044327  0.64696416     0.77300
C350        C  0.89492711  0.02527896  0.74590634     0.77300
O351        O  0.98033399  0.21216720  0.65429747    -0.71800
O352        O  0.90524875  0.20328990  0.72731016    -0.72100
O353        O  0.90854013  0.22378267  0.65226980    -0.71900
O354        O  0.97704262  0.19084097  0.72838490    -0.71900
O355        O  0.98017560  0.29673149  0.74199474    -0.71900
O356        O  0.91412837  0.33048697  0.66293687    -0.71900
O357        O  0.90916688  0.31008425  0.73810419    -0.71800
O358        O  0.98587297  0.31778355  0.66788276    -0.72000
V359        V  0.94275324  0.20948842  0.69092270     1.35200
V360        V  0.94718424  0.31189656  0.70218963     1.35200
C361        C  0.99736404  0.26636171  0.65070456     0.77400
C362        C  0.89391413  0.25494519  0.74448868     0.77500
C363        C  0.89912697  0.28307345  0.64532856     0.77300
C364        C  0.99085921  0.23758134  0.74728644     0.77300
C365        C  0.10665419  0.41482411  0.55062588     0.02200
C366        C  0.11337108  0.34606014  0.55822513     0.02200
C367        C  0.13883693  0.31153660  0.53663885    -0.18300
C368        C  0.15787474  0.34299127  0.00713045     0.02200
C369        C  0.15216162  0.41330305  0.00036433     0.02200
C370        C  0.12655306  0.44764134  0.52249308    -0.18300
H371        H  0.11999575  0.49924728  0.51655403     0.04200
H372        H  0.14209871  0.25805039  0.54108038     0.04200
C373        C  0.67893762  0.20507603  0.98383752     0.86400
C374        C  0.69315232  0.26570439  0.50661499    -0.53800
C375        C  0.71332665  0.31002823  0.98521687     0.09300
C376        C  0.71681823  0.28866252  0.94234460     0.20300
C377        C  0.65887873  0.24015192  0.95076621    -0.54500
C378        C  0.67826510  0.28628816  0.93036266     0.09500
C379        C  0.71404001  0.17694461  0.96916551    -0.54100
C380        C  0.72930960  0.21257430  0.94083304     0.10000
H381        H  0.69042166  0.27057453  0.53737463     0.14500
H382        H  0.73319101  0.32386523  0.92531556     0.00300
H383        H  0.63105395  0.23037166  0.94486669     0.14800
H384        H  0.72365840  0.12852110  0.97799037     0.14600
C385        C  0.71590874  0.05100301  0.91553749     0.86400
C386        C  0.73678620  0.01632332  0.94767057    -0.53800
C387        C  0.71813659  0.47102241  0.97040593     0.09300
C388        C  0.67899145  0.46861748  0.95893222     0.20300
C389        C  0.70091822  0.99100601  0.89280990    -0.54500
C390        C  0.68114199  0.44691945  0.91590410     0.09500
C391        C  0.68149164  0.07967175  0.93083245    -0.54100
C392        C  0.66638342  0.04367039  0.95893450     0.10000
H393        H  0.76493156  0.02572620  0.95189577     0.14500
H394        H  0.66285854  0.43421364  0.97673963     0.00300
H395        H  0.70452412  0.48447750  0.86329632     0.14800
H396        H  0.67162417  0.12776164  0.92179202     0.14600
C397        C  0.64868250  0.08035688  0.99209034     0.02200
C398        C  0.65469844  0.15099208  0.00359674     0.02200
C399        C  0.63279278  0.17691034  0.53255487    -0.18300
C400        C  0.60708901  0.13840664  0.55082354     0.02200
C401        C  0.60313595  0.06956365  0.54222109     0.02200
C402        C  0.62391399  0.04167726  0.51304373    -0.18300
H403        H  0.61899193  0.98996185  0.50523020     0.04200
H404        H  0.63416935  0.22951614  0.54011289     0.04200
C405        C  0.65773002  0.39627252  0.89677850     0.02200
C406        C  0.66253091  0.32490999  0.89834617     0.02200
C407        C  0.64639393  0.28546637  0.87051101    -0.18300
C408        C  0.62268404  0.31369756  0.84521024     0.02200
C409        C  0.61158199  0.37969024  0.84741899     0.02200
C410        C  0.63145694  0.42229671  0.87176804    -0.18300
H411        H  0.62715911  0.47579917  0.87190131     0.04200
H412        H  0.65034638  0.23151271  0.87014001     0.04200
C413        C  0.29577130  0.40526754  0.85872970     0.02200
C414        C  0.29290879  0.33460270  0.85605414     0.02200
C415        C  0.26983929  0.30043999  0.88066588    -0.18300
C416        C  0.24618474  0.33468004  0.90530048     0.02200
C417        C  0.24496364  0.40771175  0.90258080     0.02200
C418        C  0.27137667  0.44043456  0.88109457    -0.18300
H419        H  0.27327918  0.49460938  0.88236267     0.04200
H420        H  0.26939902  0.24605919  0.87955845     0.04200
C421        C  0.21949039  0.45524206  0.92372327     0.86400
C422        C  0.19530994  0.00748955  0.90122009    -0.53800
C423        C  0.17245232  0.04430452  0.92412315     0.09300
C424        C  0.17761048  0.02710548  0.96807246     0.20300
C425        C  0.23865137  0.00011720  0.95281092    -0.54500
C426        C  0.21816030  0.03983418  0.97574782     0.09500
C427        C  0.19152544  0.41740468  0.94455595    -0.54100
C428        C  0.17311808  0.45104519  0.97100146     0.10000
H429        H  0.19567383  0.01157929  0.87031440     0.14500
H430        H  0.15921262  0.05177558  0.98811646     0.00300
H431        H  0.26744013  0.99996205  0.95484322     0.14800
H432        H  0.17661040  0.38040761  0.92867335     0.14600
C433        C  0.23743153  0.15899960  0.50548477     0.02200
C434        C  0.23607910  0.08545076  0.50553187     0.02200
C435        C  0.25867202  0.05131640  0.53091965    -0.18300
C436        C  0.28237934  0.08553116  0.55456697     0.02200
C437        C  0.28221339  0.15621160  0.55558193     0.02200
C438        C  0.25982984  0.19206270  0.53140528    -0.18300
H439        H  0.26099444  0.24623786  0.53216627     0.04200
H440        H  0.25956742  0.99693126  0.53046038     0.04200
C441        C  0.17170043  0.20808345  0.93025932     0.86400
C442        C  0.15252885  0.25980632  0.95530915    -0.53800
C443        C  0.17454658  0.29619550  0.97845848     0.09300
C444        C  0.21515391  0.27986333  0.97128008     0.20300
C445        C  0.19855099  0.24838429  0.90650523    -0.54500
C446        C  0.22065321  0.28896582  0.92694671     0.09500
C447        C  0.19172736  0.17007518  0.95879951    -0.54100
C448        C  0.21718525  0.20150967  0.97770427     0.10000
H449        H  0.12379373  0.26450103  0.95633254     0.14500
H450        H  0.23343348  0.31054950  0.98883905     0.00300
H451        H  0.19897398  0.24681679  0.87547961     0.14800
H452        H  0.17478735  0.14501771  0.97839015     0.14600
O453        O  0.40864819  0.44678137  0.65909780    -0.71800
O454        O  0.48081897  0.41959107  0.73193628    -0.72100
O455        O  0.41123200  0.43107087  0.73549461    -0.71900
O456        O  0.48025681  0.43567388  0.65560253    -0.71900
O457        O  0.48425196  0.03710634  0.66172354    -0.71900
O458        O  0.41426711  0.03740817  0.74008273    -0.71900
O459        O  0.48517216  0.02336147  0.73949598    -0.71800
O460        O  0.41305741  0.04778047  0.66336401    -0.72000
V461        V  0.44540879  0.43543956  0.69563036     1.35200
V462        V  0.44918686  0.03453116  0.70076843     1.35200
C463        C  0.39674969  0.99828062  0.64911858     0.77400
C464        C  0.49489870  0.46619355  0.75093457     0.77500
C465        C  0.40315894  0.48305015  0.75433167     0.77300
C466        C  0.49276882  0.98489811  0.64348620     0.77300
O467        O  0.48208601  0.27400371  0.65522866    -0.71800
O468        O  0.41433218  0.29902009  0.73474679    -0.72100
O469        O  0.48699606  0.29335747  0.72861467    -0.71900
O470        O  0.41058813  0.28107290  0.65964186    -0.71900
O471        O  0.40908839  0.17372204  0.66910079    -0.71900
O472        O  0.48386272  0.18774679  0.74204406    -0.71900
O473        O  0.41172706  0.19171657  0.74413589    -0.71800
O474        O  0.48106260  0.16742879  0.66733919    -0.72000
V475        V  0.44832751  0.28494081  0.69509044     1.35200
V476        V  0.44642161  0.18203799  0.70524153     1.35200
C477        C  0.49485931  0.21617642  0.65005488     0.77400
C478        C  0.40023712  0.24955450  0.75162466     0.77500
C479        C  0.49937051  0.24360437  0.74599993     0.77300
C480        C  0.39667915  0.22499663  0.65281446     0.77300
C481        C  0.79054236  0.11192789  0.85250030     0.02200
C482        C  0.78958064  0.18265714  0.85450987     0.02200
C483        C  0.76788871  0.21342583  0.88224022    -0.18300
C484        C  0.74545315  0.17523880  0.90638208     0.02200
C485        C  0.74044370  0.10372100  0.89635510     0.02200
C486        C  0.76508007  0.07443901  0.87133115    -0.18300
H487        H  0.76557109  0.02045766  0.86744602     0.04200
H488        H  0.76926199  0.26726794  0.88538139     0.04200
C489        C  0.78401845  0.36915758  0.55204434     0.02200
C490        C  0.78278491  0.43947439  0.54976335     0.02200
C491        C  0.75857033  0.46993946  0.52527355    -0.18300
C492        C  0.73612068  0.43177840  0.00131000     0.02200
C493        C  0.73661922  0.35979788  0.00495686     0.02200
C494        C  0.76086998  0.33055002  0.53038159    -0.18300
H495        H  0.76242667  0.27634928  0.53276436     0.04200
H496        H  0.75862974  0.52424231  0.52341361     0.04200
C497        C  0.33279846  0.20367045  0.64359670    -0.09200
C498        C  0.36589352  0.21945993  0.62757950     0.07000
C499        C  0.36908850  0.22759391  0.58784953    -0.03000
C500        C  0.33997015  0.21385430  0.56440087    -0.07400
C501        C  0.30771469  0.19217675  0.58027082     0.06100
C502        C  0.30354567  0.19134608  0.62019479    -0.02500
Br503      Br  0.25871130  0.17066535  0.64353106    -0.02200
H504        H  0.32992330  0.19952784  0.67430762     0.10000
H505        H  0.34325763  0.21526733  0.53367615     0.08000
Br506      Br  0.41346509  0.25085891  0.56436098    -0.02600
C507        C  0.37283289  0.02472079  0.58481969    -0.09200
C508        C  0.36651700  0.00844570  0.62308945     0.07000
C509        C  0.33123305  0.00554329  0.63643393    -0.03000
C510        C  0.30329170  0.02521485  0.61264048    -0.07400
C511        C  0.31012323  0.04780980  0.57548467     0.06100
C512        C  0.34498482  0.04412361  0.56096219    -0.02500
Br513      Br  0.34370369  0.48916334  0.51155513    -0.02200
H514        H  0.38958589  0.46761943  0.57833758     0.10000
H515        H  0.27645949  0.02631701  0.62381275     0.08000
Br516      Br  0.32009968  0.97793457  0.68732786    -0.02600
C517        C  0.35994329  0.41640780  0.84328751    -0.09200
C518        C  0.32529412  0.44158167  0.83911205     0.07000
C519        C  0.31952106  0.49395681  0.81264013    -0.03000
C520        C  0.34690788  0.51252782  0.78772325    -0.07400
C521        C  0.37917505  0.47780575  0.78741465     0.06100
C522        C  0.38644561  0.43247921  0.81697361    -0.02500
Br523      Br  0.43176623  0.38979611  0.82183261    -0.02200
H524        H  0.36551397  0.37926880  0.86497607     0.10000
H525        H  0.34202207  0.55091687  0.76690369     0.08000
Br526      Br  0.27431946  0.53652619  0.80517464    -0.02600
C527        C  0.33936486  0.24944366  0.83854655    -0.09200
C528        C  0.31406493  0.29695111  0.82704118     0.07000
C529        C  0.31329420  0.31648584  0.78841436    -0.03000
C530        C  0.34177131  0.30067464  0.76444697    -0.07400
C531        C  0.36942734  0.25947643  0.77720458     0.06100
C532        C  0.36618199  0.22842471  0.81324960    -0.02500
Br533      Br  0.39762756  0.15879914  0.82966820    -0.02200
H534        H  0.33927156  0.23112508  0.86763269     0.10000
H535        H  0.34223593  0.32038240  0.73563409     0.08000
Br536      Br  0.27398551  0.36511997  0.76749988    -0.02600
C537        C  0.56630292  0.46710461  0.82751325    -0.09200
C538        C  0.57825952  0.39945293  0.82484791     0.07000
C539        C  0.55620626  0.34897645  0.80365260    -0.03000
C540        C  0.52445320  0.37943545  0.78903604    -0.07400
C541        C  0.52040128  0.44714487  0.78165411     0.06100
C542        C  0.53757719  0.49060560  0.80618290    -0.02500
Br543      Br  0.51504923  0.07121069  0.81660233    -0.02200
H544        H  0.57825379  0.50239042  0.84693942     0.10000
H545        H  0.50077712  0.35132858  0.78432649     0.08000
Br546      Br  0.57987941  0.17065182  0.78767141    -0.02600
C547        C  0.56413843  0.25135979  0.84127036    -0.09200
C548        C  0.60144353  0.27358000  0.82156975     0.07000
C549        C  0.60339921  0.28767261  0.77559162    -0.03000
C550        C  0.56805691  0.27753832  0.75013312    -0.07400
C551        C  0.53143394  0.25249363  0.76975106     0.06100
C552        C  0.52941488  0.24180253  0.81536908    -0.02500
Br553      Br  0.48466196  0.22948675  0.84016576    -0.02200
H554        H  0.56168470  0.24994720  0.87207371     0.10000
H555        H  0.56889146  0.28771856  0.71980047     0.08000
Br556      Br  0.64519413  0.32451143  0.75260964    -0.02600
C557        C  0.52884491  0.23435522  0.59033071    -0.09200
C558        C  0.52649096  0.20527639  0.62656544     0.07000
C559        C  0.55432175  0.16403344  0.63980279    -0.03000
C560        C  0.58264036  0.14892097  0.61580138    -0.07400
C561        C  0.58299425  0.17173247  0.57814614     0.06100
C562        C  0.55674187  0.21722845  0.56578086    -0.02500
Br563      Br  0.55560572  0.25159797  0.51466432    -0.02200
H564        H  0.50786636  0.26697327  0.58027512     0.10000
H565        H  0.60313295  0.11493923  0.62556017     0.08000
Br566      Br  0.55504965  0.12458451  0.68973256    -0.02600
C567        C  0.53907698  0.04982882  0.55474183    -0.09200
C568        C  0.57420156  0.02961705  0.56098718     0.07000
C569        C  0.58092990  0.98338081  0.59065774    -0.03000
C570        C  0.55320630  0.96340744  0.61538001    -0.07400
C571        C  0.51887809  0.99036127  0.61161723     0.06100
C572        C  0.51201274  0.03286468  0.58034269    -0.02100
Br573      Br  0.46406362  0.53102749  0.56500419    -0.02200
H574        H  0.53340955  0.08519995  0.53212392     0.10000
H575        H  0.55917892  0.93129500  0.63941657     0.08000
Br576      Br  0.62805598  0.95236842  0.60117973    -0.02600
C577        C  0.06638274  0.26066295  0.57138899    -0.09200
C578        C  0.09066864  0.30822471  0.58550016     0.07000
C579        C  0.08803371  0.32845302  0.62386796    -0.03000
C580        C  0.05795114  0.31158283  0.64504388    -0.07400
C581        C  0.03117472  0.27103987  0.62934927     0.06100
C582        C  0.03705283  0.24067580  0.59345391    -0.02500
Br583      Br  0.00495244  0.17621290  0.57208346    -0.02200
H584        H  0.06878784  0.24284390  0.54223967     0.10000
H585        H  0.05498566  0.33187069  0.67362972     0.08000
Br586      Br  0.12413926  0.38142497  0.64781879    -0.02600
C587        C  0.86525832  0.27824134  0.80779605    -0.09200
C588        C  0.86332103  0.25032420  0.77090461     0.07000
C589        C  0.83258013  0.21484436  0.76034294    -0.03000
C590        C  0.80581498  0.20371682  0.78717395    -0.07400
C591        C  0.81025983  0.22193964  0.82568418     0.06100
C592        C  0.83913563  0.26379256  0.83542199    -0.02500
Br593      Br  0.84604414  0.29716399  0.88635422    -0.02200
H594        H  0.88830286  0.30737462  0.81592287     0.10000
H595        H  0.78317352  0.17351108  0.77892119     0.08000
Br596      Br  0.82660914  0.17611946  0.71046308    -0.02600
C597        C  0.83618356  0.31110498  0.63721909    -0.09200
C598        C  0.86905660  0.29679046  0.62021830     0.07000
C599        C  0.87217157  0.29657470  0.58021310    -0.03000
C600        C  0.84355033  0.31767085  0.55800709    -0.07400
C601        C  0.81126084  0.33549589  0.57525129     0.06100
C602        C  0.80695687  0.32785537  0.61484727    -0.02500
Br603      Br  0.76157273  0.33701228  0.63910306    -0.02200
H604        H  0.83321905  0.30893047  0.66797802     0.10000
H605        H  0.84668947  0.32173531  0.52733039     0.08000
Br606      Br  0.91451165  0.26821798  0.55465921    -0.02600
C607        C  0.05203421  0.52436638  0.61843865    -0.09200
C608        C  0.01946270  0.49015906  0.61703025     0.07000
C609        C  0.01451643  0.44051326  0.58895623    -0.03000
C610        C  0.04217588  0.42291020  0.56442880    -0.07400
C611        C  0.07612473  0.45026623  0.56910115     0.06100
C612        C  0.08052947  0.50434213  0.59487818    -0.02500
Br613      Br  0.12586240  0.04319135  0.60209786    -0.02200
H614        H  0.05636425  0.05879356  0.63965744     0.10000
H615        H  0.03798106  0.38323677  0.54372378     0.08000
Br616      Br  0.97132729  0.39122907  0.58467523    -0.02600
C617        C  0.83185436  0.51652389  0.63176992    -0.09200
C618        C  0.86671873  0.51208635  0.61782692     0.07000
C619        C  0.87231895  0.50297364  0.57851296    -0.03000
C620        C  0.84382171  0.48490808  0.55516322    -0.07400
C621        C  0.80940422  0.48016705  0.57038684     0.06100
C622        C  0.80305886  0.50226061  0.60794786    -0.02500
Br623      Br  0.75578339  0.51215277  0.62764526    -0.02200
H624        H  0.82810421  0.03365667  0.65754374     0.10000
H625        H  0.84871899  0.47149249  0.52560212     0.08000
Br626      Br  0.91766191  0.51878064  0.55558040    -0.02600
C627        C  0.80766586  0.03696541  0.79834005    -0.09200
C628        C  0.81789540  0.07622964  0.82978634     0.07000
C629        C  0.85421561  0.08677151  0.83688671    -0.03000
C630        C  0.87914646  0.06847236  0.80933976    -0.07400
C631        C  0.86858720  0.03477354  0.77614974     0.06100
C632        C  0.83300111  0.01470539  0.77192381    -0.02500
Br633      Br  0.81740941  0.96120424  0.72959689    -0.02200
H634        H  0.77984657  0.02653090  0.79334687     0.10000
H635        H  0.90686371  0.08083356  0.81371716     0.08000
Br636      Br  0.87092099  0.12436869  0.88398342    -0.02600
C637        C  0.05718417  0.19745242  0.75817390    -0.09200
C638        C  0.01941207  0.22330489  0.77405918     0.07000
C639        C  0.01355049  0.23760809  0.81892167    -0.03000
C640        C  0.04600599  0.23061097  0.84798462    -0.07400
C641        C  0.08458730  0.20745185  0.83199944     0.06100
C642        C  0.09027747  0.18998488  0.78672175    -0.02500
Br643      Br  0.13386543  0.15316870  0.76793842    -0.02200
H644        H  0.06052522  0.18641838  0.72808859     0.10000
H645        H  0.04117600  0.23407010  0.87841725     0.08000
Br646      Br  0.96649053  0.25003884  0.83875168    -0.02600
C647        C  0.05212551  0.01210715  0.83567034    -0.09200
C648        C  0.06317558  0.08039561  0.83461892     0.07000
C649        C  0.04146757  0.12989744  0.81207524    -0.03000
C650        C  0.01000216  0.09929302  0.79701417    -0.07400
C651        C  0.00781855  0.03212829  0.78758560     0.06100
C652        C  0.02491057  0.98805732  0.81174301    -0.02500
Br653      Br  0.00171817  0.40847381  0.82372234    -0.02200
H654        H  0.06426407  0.97710677  0.85514147     0.10000
H655        H  0.98688146  0.12765184  0.78909252     0.08000
Br656      Br  0.06575297  0.30756479  0.79426285    -0.02600
C657        C  0.10586824  0.66931934  0.35665900     0.02200
C658        C  0.09732273  0.60217811  0.35780955     0.02200
C659        C  0.11930500  0.56150198  0.38179760    -0.18300
C660        C  0.14658391  0.59075618  0.40542270     0.02200
C661        C  0.14916717  0.66342022  0.40587407     0.02200
C662        C  0.12878721  0.70021735  0.38082596    -0.18300
H663        H  0.13118498  0.75451380  0.37942125     0.04200
H664        H  0.11627134  0.50760915  0.38174352     0.04200
O665        O  0.90738904  0.56732584  0.15873540    -0.71800
O666        O  0.98172734  0.56537470  0.22985937    -0.72100
O667        O  0.97890564  0.55734855  0.15389498    -0.71900
O668        O  0.91188153  0.57340478  0.23477223    -0.71900
O669        O  0.90208981  0.96787537  0.23290632    -0.71900
O670        O  0.98062357  0.94746414  0.16612326    -0.71900
O671        O  0.97238169  0.96075578  0.24390463    -0.71800
O672        O  0.90979926  0.95800354  0.15689453    -0.72000
V673        V  0.94498125  0.56402206  0.19439853     1.35200
V674        V  0.94151067  0.95994357  0.19953436     1.35200
C675        C  0.89746813  0.01244452  0.14380111     0.77400
C676        C  0.98707765  0.51724493  0.25220764     0.77500
C677        C  0.99276549  0.99627677  0.14726357     0.77300
C678        C  0.89501127  0.52289633  0.24664876     0.77300
O679        O  0.98156008  0.70945181  0.15303742    -0.71800
O680        O  0.90723438  0.70215059  0.22708568    -0.72100
O681        O  0.90962691  0.72108394  0.15177770    -0.71900
O682        O  0.97934242  0.69062290  0.22728893    -0.71900
O683        O  0.98111260  0.79641053  0.24121018    -0.71900
O684        O  0.91651827  0.82809910  0.16035735    -0.71900
O685        O  0.90992453  0.80966704  0.23570125    -0.71800
O686        O  0.98824221  0.81464867  0.16706082    -0.72000
V687        V  0.94438645  0.70774952  0.19016418     1.35200
V688        V  0.94878496  0.81035440  0.20055717     1.35200
C689        C  0.99926417  0.76289951  0.14979330     0.77400
C690        C  0.89508983  0.75438464  0.24305079     0.77500
C691        C  0.90086253  0.78035989  0.14368390     0.77300
C692        C  0.99262505  0.73777909  0.24633489     0.77300
C693        C  0.10783758  0.91034036  0.05140472     0.02200
C694        C  0.11583894  0.84213729  0.05907102     0.02200
C695        C  0.14159366  0.80901881  0.03714450    -0.18300
C696        C  0.15954964  0.84146956  0.50719985     0.02200
C697        C  0.15262730  0.91139994  0.50050107     0.02200
C698        C  0.12681792  0.94421339  0.02296695    -0.18300
H699        H  0.11934783  0.99539939  0.01703987     0.04200
H700        H  0.14567487  0.75570864  0.04148283     0.04200
C701        C  0.67911370  0.70691114  0.48274094     0.86400
C702        C  0.69352218  0.76750958  0.00535060    -0.53800
C703        C  0.71394756  0.81114491  0.48375860     0.09300
C704        C  0.71717517  0.78943461  0.44086461     0.20300
C705        C  0.65914322  0.74157446  0.44953250    -0.54500
C706        C  0.67854023  0.78718025  0.42889029     0.09500
C707        C  0.71418989  0.67828131  0.46826078    -0.54100
C708        C  0.72953391  0.71329505  0.43969984     0.10000
H709        H  0.69080170  0.77262606  0.03610403     0.14500
H710        H  0.73361450  0.82430586  0.42369127     0.00300
H711        H  0.63128634  0.73190883  0.44370634     0.14800
H712        H  0.72386468  0.63018221  0.47758575     0.14600
C713        C  0.71651369  0.55061532  0.41637076     0.86400
C714        C  0.73691919  0.51629402  0.44911504    -0.53800
C715        C  0.71848533  0.97069946  0.46899877     0.09300
C716        C  0.67916738  0.96770027  0.45784771     0.20300
C717        C  0.70160775  0.49009882  0.39398884    -0.54500
C718        C  0.68079064  0.94716447  0.41453223     0.09500
C719        C  0.68191520  0.57980291  0.43099243    -0.54100
C720        C  0.66649695  0.54481947  0.45931714     0.10000
H721        H  0.76503331  0.52538471  0.45371882     0.14500
H722        H  0.66336740  0.93269413  0.47561664     0.00300
H723        H  0.70357951  0.98623252  0.36202360     0.14800
H724        H  0.67215795  0.62768255  0.42139873     0.14600
C725        C  0.64851320  0.58277356  0.49192742     0.02200
C726        C  0.65444043  0.65384741  0.50258379     0.02200
C727        C  0.63164488  0.68154476  0.03022035    -0.18300
C728        C  0.60581462  0.64386856  0.04876043     0.02200
C729        C  0.60238917  0.57462133  0.04167177     0.02200
C730        C  0.62351203  0.54511697  0.01325315    -0.18300
H731        H  0.61909269  0.49271104  0.00671273     0.04200
H732        H  0.63275487  0.73465478  0.03669690     0.04200
C733        C  0.65752572  0.89645191  0.39510372     0.02200
C734        C  0.66260451  0.82523089  0.39671032     0.02200
C735        C  0.64634172  0.78539911  0.36907147    -0.18300
C736        C  0.62244474  0.81314785  0.34370845     0.02200
C737        C  0.61138643  0.87925356  0.34553549     0.02200
C738        C  0.63120915  0.92212707  0.36990472    -0.18300
H739        H  0.62667416  0.97555598  0.37012267     0.04200
H740        H  0.65028053  0.73144018  0.36899283     0.04200
C741        C  0.29378140  0.91028861  0.35620451     0.02200
C742        C  0.29150797  0.83965536  0.35330176     0.02200
C743        C  0.26935553  0.80448781  0.37837620    -0.18300
C744        C  0.24600807  0.83758549  0.40377351     0.02200
C745        C  0.24413707  0.91062705  0.40148609     0.02200
C746        C  0.26970836  0.94451001  0.37941230    -0.18300
H747        H  0.27116747  0.99875344  0.38076760     0.04200
H748        H  0.26953021  0.75010180  0.37719825     0.04200
C749        C  0.21858358  0.95692582  0.42329965     0.86400
C750        C  0.19673640  0.50608354  0.40114837    -0.53800
C751        C  0.17397687  0.54399291  0.42364018     0.09300
C752        C  0.17886577  0.52767259  0.46775998     0.20300
C753        C  0.23973156  0.49848059  0.45310789    -0.54500
C754        C  0.21954683  0.53946893  0.47556132     0.09500
C755        C  0.19107546  0.91776757  0.44408217    -0.54100
C756        C  0.17255113  0.95033453  0.47084660     0.10000
H757        H  0.19726642  0.50939101  0.37021312     0.14500
H758        H  0.16054837  0.55328356  0.48751487     0.00300
H759        H  0.26850653  0.49759361  0.45526575     0.14800
H760        H  0.17643196  0.88035855  0.42821823     0.14600
C761        C  0.24037887  0.65945482  0.00294270     0.02200
C762        C  0.23815705  0.58598244  0.00442221     0.02200
C763        C  0.26067227  0.55246588  0.03027116    -0.18300
C764        C  0.28562724  0.58699095  0.05239581     0.02200
C765        C  0.28751642  0.65760270  0.05026420     0.02200
C766        C  0.26464497  0.69281297  0.02650109    -0.18300
H767        H  0.26708398  0.74680255  0.02551628     0.04200
H768        H  0.25992874  0.49817204  0.03192343     0.04200
C769        C  0.17315488  0.70810971  0.42941510     0.86400
C770        C  0.15396283  0.75895260  0.45505640    -0.53800
C771        C  0.17607030  0.79555076  0.47799574     0.09300
C772        C  0.21665253  0.78046099  0.46999650     0.20300
C773        C  0.19934061  0.74955586  0.40541608    -0.54500
C774        C  0.22134903  0.79058289  0.42567029     0.09500
C775        C  0.19392274  0.67019378  0.45728724    -0.54100
C776        C  0.21940175  0.70194449  0.47584454     0.10000
H777        H  0.12521235  0.76286630  0.45660470     0.14500
H778        H  0.23487640  0.81150975  0.48739892     0.00300
H779        H  0.19931926  0.74849580  0.37438293     0.14800
H780        H  0.17731957  0.64520628  0.47736163     0.14600
O781        O  0.40641348  0.94020961  0.15848159    -0.71800
O782        O  0.47999588  0.91691397  0.22991510    -0.72100
O783        O  0.41032393  0.92934339  0.23478850    -0.71900
O784        O  0.47819659  0.93010877  0.15313188    -0.71900
O785        O  0.48521013  0.54284073  0.16440858    -0.71900
O786        O  0.41649419  0.53833700  0.24438806    -0.71900
O787        O  0.48710925  0.52584603  0.24181619    -0.71800
O788        O  0.41341819  0.55378969  0.16840555    -0.72000
V789        V  0.44394076  0.93123017  0.19415054     1.35200
V790        V  0.45057096  0.53839017  0.20416972     1.35200
C791        C  0.39773453  0.50528924  0.15236119     0.77400
C792        C  0.49373501  0.96398528  0.24870630     0.77500
C793        C  0.40137814  0.98283097  0.25169965     0.77300
C794        C  0.49464965  0.49063701  0.14653121     0.77300
O795        O  0.48048192  0.77917442  0.15358573    -0.71800
O796        O  0.41644698  0.80114010  0.23688551    -0.72100
O797        O  0.48833941  0.79257444  0.22724621    -0.71900
O798        O  0.40935512  0.78904738  0.16168726    -0.71900
O799        O  0.41173931  0.68044542  0.16322837    -0.71900
O800        O  0.48053507  0.68896773  0.24314636    -0.71900
O801        O  0.40839772  0.69361304  0.23938982    -0.71800
O802        O  0.48284009  0.67345207  0.16766454    -0.72000
V803        V  0.44848084  0.78877641  0.19535294     1.35200
V804        V  0.44578613  0.68567529  0.20310781     1.35200
C805        C  0.49474999  0.72240386  0.14899279     0.77400
C806        C  0.39968178  0.75155790  0.25037691     0.77500
C807        C  0.49804122  0.74289800  0.24641720     0.77300
C808        C  0.39820122  0.73335528  0.14988234     0.77300
C809        C  0.79058452  0.61110694  0.35190136     0.02200
C810        C  0.78922431  0.68193757  0.35271426     0.02200
C811        C  0.76745058  0.71312521  0.38034949    -0.18300
C812        C  0.74563648  0.67522048  0.40548186     0.02200
C813        C  0.74115797  0.60308098  0.39671639     0.02200
C814        C  0.76579970  0.57359419  0.37185917    -0.18300
H815        H  0.76671585  0.51946178  0.36882848     0.04200
H816        H  0.76824777  0.76711363  0.38267501     0.04200
C817        C  0.78665244  0.86910348  0.04891413     0.02200
C818        C  0.78555100  0.93947393  0.04639231     0.02200
C819        C  0.76059190  0.96994207  0.02270243    -0.18300
C820        C  0.73729940  0.93189031  0.49955351     0.02200
C821        C  0.73784766  0.86011345  0.50322265     0.02200
C822        C  0.76269730  0.83061287  0.02802200    -0.18300
H823        H  0.76393017  0.77642994  0.03061200     0.04200
H824        H  0.76056830  0.02424690  0.02089863     0.04200
C825        C  0.33499913  0.74174268  0.13183073    -0.09200
C826        C  0.37027644  0.72941093  0.12113395     0.07000
C827        C  0.37806196  0.70632214  0.08414583    -0.03000
C828        C  0.35043764  0.68880304  0.05964379    -0.07400
C829        C  0.31501840  0.69465456  0.07167554     0.06100
C830        C  0.30725225  0.72480378  0.10717427    -0.02500
Br831      Br  0.25936027  0.73519446  0.12504087    -0.02200
H832        H  0.32897139  0.76032539  0.16023359     0.10000
H833        H  0.35656948  0.66655812  0.03212877     0.08000
Br834      Br  0.42606230  0.69643555  0.06669240    -0.02600
C835        C  0.36697251  0.49516820  0.08932463    -0.09200
C836        C  0.36664664  0.51693491  0.12752458     0.07000
C837        C  0.33640478  0.55074299  0.14147520    -0.03000
C838        C  0.30802453  0.56444172  0.11732518    -0.07400
C839        C  0.31008015  0.55015155  0.07826197     0.06100
C840        C  0.33927930  0.51277948  0.06443091    -0.02500
Br841      Br  0.35588080  0.06816300  0.00923282    -0.02200
H842        H  0.39946108  0.02351535  0.07360368     0.10000
H843        H  0.28538595  0.59175053  0.12847316     0.08000
Br844      Br  0.33254607  0.58274256  0.19268625    -0.02600
C845        C  0.35779311  0.92445358  0.34222390    -0.09200
C846        C  0.32295555  0.94726959  0.33664042     0.07000
C847        C  0.31672172  0.99664890  0.30857258    -0.03000
C848        C  0.34390006  0.01305315  0.28271972    -0.07400
C849        C  0.37683351  0.98032114  0.28442770     0.06100
C850        C  0.38445831  0.93946551  0.31598943    -0.02500
Br851      Br  0.43044368  0.90096313  0.32393605    -0.02200
H852        H  0.36348547  0.88970862  0.36513767     0.10000
H853        H  0.33847784  0.04767701  0.25971449     0.08000
Br854      Br  0.27111672  0.03782051  0.30156396    -0.02600
C855        C  0.33926170  0.75698585  0.33737663    -0.09200
C856        C  0.31344754  0.80251991  0.32479914     0.07000
C857        C  0.31268770  0.81989113  0.28578532    -0.03000
C858        C  0.34111472  0.80249766  0.26208262    -0.07400
C859        C  0.36888134  0.76250637  0.27568767     0.06100
C860        C  0.36625440  0.73513639  0.31265062    -0.02500
Br861      Br  0.39903947  0.67000577  0.33126084    -0.02200
H862        H  0.33942679  0.74093690  0.36690123     0.10000
H863        H  0.34150172  0.82009892  0.23282709     0.08000
Br864      Br  0.27327678  0.86617033  0.26349079    -0.02600
C865        C  0.56666698  0.96686482  0.32395087    -0.09200
C866        C  0.57800021  0.89869550  0.32275972     0.07000
C867        C  0.55544409  0.84770214  0.30258495    -0.03000
C868        C  0.52356114  0.87809427  0.28787501    -0.07400
C869        C  0.51971051  0.94556425  0.27933440     0.06100
C870        C  0.53785745  0.98983677  0.30246991    -0.02500
Br871      Br  0.51352716  0.56966621  0.32252009    -0.02200
H872        H  0.57935393  0.00322947  0.34214904     0.10000
H873        H  0.49960261  0.85024141  0.28406159     0.08000
Br874      Br  0.57815302  0.66821818  0.28890762    -0.02600
C875        C  0.56353411  0.75167097  0.34143309    -0.09200
C876        C  0.60067990  0.77240415  0.32087458     0.07000
C877        C  0.60205809  0.78433823  0.27473224    -0.03000
C878        C  0.56649271  0.77375036  0.25001598    -0.07400
C879        C  0.53002363  0.75015446  0.27031975     0.06100
C880        C  0.52842915  0.74153013  0.31615242    -0.02500
Br881      Br  0.48414554  0.73297584  0.34207292    -0.02200
H882        H  0.56144865  0.75186845  0.37227776     0.10000
H883        H  0.56698161  0.78346239  0.21963151     0.08000
Br884      Br  0.64325623  0.81964716  0.25002893    -0.02600
C885        C  0.52610177  0.73681486  0.08702257    -0.09200
C886        C  0.52591860  0.71280127  0.12459709     0.07000
C887        C  0.55524223  0.67594628  0.13818295    -0.03000
C888        C  0.58333618  0.66139792  0.11388327    -0.07400
C889        C  0.58151252  0.67808839  0.07533700     0.06100
C890        C  0.55350304  0.71844827  0.06200455    -0.02500
Br891      Br  0.55023020  0.74418422  0.00938028    -0.02200
H892        H  0.50389958  0.76583906  0.07649108     0.10000
H893        H  0.60538329  0.63193547  0.12434415     0.08000
Br894      Br  0.55792486  0.63968034  0.18871362    -0.02600
C895        C  0.53935121  0.54084371  0.05388114    -0.09200
C896        C  0.57543349  0.53446624  0.06331000     0.07000
C897        C  0.58440010  0.50239721  0.09786820    -0.03000
C898        C  0.55763761  0.48396581  0.12394697    -0.07400
C899        C  0.52169631  0.49547030  0.11571026     0.06100
C900        C  0.51267524  0.52093813  0.07958569    -0.02100
Br901      Br  0.46721584  0.07603146  0.07323703    -0.02200
H902        H  0.53192310  0.56509697  0.02744389     0.10000
H903        H  0.56502722  0.46416685  0.15157811     0.08000
Br904      Br  0.63299482  0.49027202  0.11248817    -0.02600
C905        C  0.06881807  0.75696320  0.07104077    -0.09200
C906        C  0.09352330  0.80287719  0.08600456     0.07000
C907        C  0.09087445  0.82153153  0.12465438    -0.03000
C908        C  0.06063365  0.80430503  0.14547136    -0.07400
C909        C  0.03334889  0.76620621  0.12886901     0.06100
C910        C  0.03887871  0.73789820  0.09236783    -0.02500
Br911      Br  0.00500257  0.67970575  0.06856157    -0.02200
H912        H  0.07102909  0.74095850  0.04153288     0.10000
H913        H  0.05772585  0.82325169  0.17436259     0.08000
Br914      Br  0.12666866  0.87408672  0.14943959    -0.02600
C915        C  0.86479156  0.77925026  0.30561189    -0.09200
C916        C  0.86393415  0.74996678  0.26901971     0.07000
C917        C  0.83366570  0.71313177  0.25830998    -0.03000
C918        C  0.80682059  0.70060046  0.28501285    -0.07400
C919        C  0.81021739  0.72057975  0.32343222     0.06100
C920        C  0.83821431  0.76491055  0.33287239    -0.02500
Br921      Br  0.84309600  0.80335977  0.38284714    -0.02200
H922        H  0.88725506  0.80992063  0.31379988     0.10000
H923        H  0.78471679  0.66913403  0.27662636     0.08000
Br924      Br  0.82823457  0.67620634  0.20792354    -0.02600
C925        C  0.83845896  0.81288720  0.13511303    -0.09200
C926        C  0.87082435  0.79420873  0.11832554     0.07000
C927        C  0.87370383  0.79138317  0.07830194    -0.03000
C928        C  0.84539884  0.81340437  0.05574294    -0.07400
C929        C  0.81363649  0.83534537  0.07271120     0.06100
C930        C  0.80958923  0.83126266  0.11255279    -0.02500
Br931      Br  0.76499697  0.84855606  0.13712356    -0.02200
H932        H  0.83565570  0.81323515  0.16592482     0.10000
H933        H  0.84844982  0.81507076  0.02498250     0.08000
Br934      Br  0.91557684  0.75899308  0.05330926    -0.02600
C935        C  0.05255167  0.01906798  0.11890894    -0.09200
C936        C  0.02014406  0.98436552  0.11773897     0.07000
C937        C  0.01545743  0.93366105  0.09016411    -0.03000
C938        C  0.04328101  0.91595984  0.06582676    -0.07400
C939        C  0.07706119  0.94425480  0.07025757     0.06100
C940        C  0.08115836  0.99886257  0.09565552    -0.02500
Br941      Br  0.12556290  0.54757007  0.10160548    -0.02200
H942        H  0.05612803  0.56322753  0.13962084     0.10000
H943        H  0.03926075  0.87610874  0.04520907     0.08000
Br944      Br  0.97229765  0.88395314  0.08581406    -0.02600
C945        C  0.83351547  0.01917989  0.12829358    -0.09200
C946        C  0.86865920  0.01220173  0.11559233     0.07000
C947        C  0.87519751  0.00122598  0.07656594    -0.03000
C948        C  0.84712203  0.98278771  0.05266808    -0.07400
C949        C  0.81224622  0.98036327  0.06689234     0.06100
C950        C  0.80520810  0.00542439  0.10371572    -0.02500
Br951      Br  0.75762277  0.01998105  0.12149694    -0.02200
H952        H  0.82712127  0.52922991  0.16137429     0.10000
H953        H  0.85262664  0.96761295  0.02350807     0.08000
Br954      Br  0.92119694  0.01544731  0.05469172    -0.02600
C955        C  0.80784767  0.53401674  0.29897154    -0.09200
C956        C  0.81798517  0.57493295  0.32973187     0.07000
C957        C  0.85423106  0.58595554  0.33684538    -0.03000
C958        C  0.87922688  0.56633955  0.30975725    -0.07400
C959        C  0.86878509  0.53118741  0.27703021     0.06100
C960        C  0.83324527  0.51060244  0.27300072    -0.02500
Br961      Br  0.81763369  0.45476752  0.23169742    -0.02200
H962        H  0.78005044  0.52313395  0.29413845     0.10000
H963        H  0.90688926  0.57933014  0.31396734     0.08000
Br964      Br  0.87077782  0.62653984  0.38317523    -0.02600
C965        C  0.05932748  0.69888285  0.25718425    -0.09200
C966        C  0.02146117  0.72444969  0.27308524     0.07000
C967        C  0.01553715  0.73806514  0.31803117    -0.03000
C968        C  0.04792671  0.73063889  0.34711894    -0.07400
C969        C  0.08653094  0.70775225  0.33113349     0.06100
C970        C  0.09237875  0.69102770  0.28581136    -0.02500
Br971      Br  0.13642247  0.65598037  0.26707245    -0.02200
H972        H  0.06275598  0.68830692  0.22705538     0.10000
H973        H  0.04303450  0.73365443  0.37755649     0.08000
Br974      Br  0.96849185  0.75024338  0.33804580    -0.02600
C975        C  0.05362891  0.51258282  0.33451004    -0.09200
C976        C  0.06510073  0.58064175  0.33317584     0.07000
C977        C  0.04351070  0.63045982  0.31069111    -0.03000
C978        C  0.01197923  0.60019590  0.29557470    -0.07400
C979        C  0.00916784  0.53291160  0.28660948     0.06100
C980        C  0.02593166  0.48885998  0.31107227    -0.02500
Br981      Br  0.00212396  0.90576793  0.32267413    -0.02200
H982        H  0.06556821  0.47768081  0.35418282     0.10000
H983        H  0.98887707  0.62881787  0.28798098     0.08000
Br984      Br  0.06778743  0.80842662  0.29383781    -0.02600
C985        C  0.10585579  0.66929654  0.85666556     0.02200
C986        C  0.09731105  0.60215408  0.85781101     0.02200
C987        C  0.11929714  0.56147527  0.88179383    -0.18300
C988        C  0.14658005  0.59072603  0.90541627     0.02200
C989        C  0.14916542  0.66339107  0.90586939     0.02200
C990        C  0.12877956  0.70019094  0.88082900    -0.18300
H991        H  0.13117744  0.75448874  0.87942605     0.04200
H992        H  0.11626274  0.50757850  0.88173764     0.04200
O993        O  0.90737736  0.56736622  0.65872694    -0.71800
O994        O  0.98169867  0.56539456  0.72986954    -0.72100
O995        O  0.97889427  0.55738689  0.65390384    -0.71900
O996        O  0.91185272  0.57342809  0.73476226    -0.71900
O997        O  0.90208104  0.96791039  0.73291277    -0.71900
O998        O  0.98058968  0.94748258  0.66610341    -0.71900
O999        O  0.97237142  0.96076331  0.74388846    -0.71800
O1000       O  0.90976503  0.95805321  0.65689851    -0.72000
V1001       V  0.94496125  0.56405130  0.69439861     1.35200
V1002       V  0.94148925  0.95997313  0.69952782     1.35200
C1003       C  0.89744413  0.01250050  0.64380243     0.77400
C1004       C  0.98705057  0.51725614  0.75221141     0.77500
C1005       C  0.99273976  0.99629589  0.64725141     0.77300
C1006       C  0.89498353  0.52291693  0.74663647     0.77300
O1007       O  0.98153821  0.70948142  0.65303573    -0.71800
O1008       O  0.90722753  0.70219678  0.72710385    -0.72100
O1009       O  0.90960729  0.72114366  0.65179370    -0.71900
O1010       O  0.97933457  0.69064019  0.72728771    -0.71900
O1011       O  0.98111489  0.79642376  0.74121698    -0.71900
O1012       O  0.91651462  0.82815475  0.66037483    -0.71900
O1013       O  0.90992708  0.80971213  0.73572124    -0.71800
O1014       O  0.98823607  0.81467142  0.66706697    -0.72000
V1015       V  0.94437238  0.70778758  0.69017224     1.35200
V1016       V  0.94878351  0.81038875  0.70056994     1.35200
C1017       C  0.99924824  0.76292206  0.64979227     0.77400
C1018       C  0.89508878  0.75443340  0.74307240     0.77500
C1019       C  0.90085192  0.78042476  0.64370015     0.77300
C1020       C  0.99262273  0.73778750  0.74633618     0.77300
C1021       C  0.10780966  0.91035750  0.55139117     0.02200
C1022       C  0.11581252  0.84215579  0.55905869     0.02200
C1023       C  0.14157373  0.80904478  0.53714037    -0.18300
C1024       C  0.15956505  0.84143898  0.00719777     0.02200
C1025       C  0.15263971  0.91136869  0.00049892     0.02200
C1026       C  0.12679813  0.94423912  0.52296166    -0.18300
H1027       H  0.11933123  0.99542884  0.51703525     0.04200
H1028       H  0.14565746  0.75573080  0.54147961     0.04200
C1029       C  0.67912118  0.70688941  0.98277261     0.86400
C1030       C  0.69351441  0.76752552  0.50532419    -0.53800
C1031       C  0.71394717  0.81113291  0.98377820     0.09300
C1032       C  0.71716780  0.78942120  0.94088536     0.20300
C1033       C  0.65914095  0.74154666  0.94956895    -0.54500
C1034       C  0.67853143  0.78715587  0.92892142     0.09500
C1035       C  0.71419643  0.67826703  0.96828328    -0.54100
C1036       C  0.72953176  0.71328638  0.93971855     0.10000
H1037       H  0.69078429  0.77264333  0.53607717     0.14500
H1038       H  0.73360007  0.82429654  0.92370809     0.00300
H1039       H  0.63128467  0.73187522  0.94375015     0.14800
H1040       H  0.72387416  0.63016974  0.97760237     0.14600
C1041       C  0.71651202  0.55060920  0.91638399     0.86400
C1042       C  0.73692191  0.51627861  0.94912246    -0.53800
C1043       C  0.71849212  0.97068667  0.96901051     0.09300
C1044       C  0.67917301  0.96767947  0.95786504     0.20300
C1045       C  0.70160113  0.49009807  0.89400013    -0.54500
C1046       C  0.68079201  0.94713241  0.91455229     0.09500
C1047       C  0.68191621  0.57979388  0.93101534    -0.54100
C1048       C  0.66650169  0.54480430  0.95934001     0.10000
H1049       H  0.76503835  0.52536717  0.95372126     0.14500
H1050       H  0.66337633  0.93267579  0.97563992     0.00300
H1051       H  0.70357235  0.98619134  0.86203637     0.14800
H1052       H  0.67215671  0.62767378  0.92142527     0.14600
C1053       C  0.64852438  0.58274954  0.99195814     0.02200
C1054       C  0.65445664  0.65381836  0.00262257     0.02200
C1055       C  0.63161804  0.68158656  0.53016696    -0.18300
C1056       C  0.60578856  0.64391346  0.54870927     0.02200
C1057       C  0.60236986  0.57466152  0.54163260     0.02200
C1058       C  0.62349860  0.54514647  0.51322239    -0.18300
H1059       H  0.61908596  0.49273523  0.50669235     0.04200
H1060       H  0.63272544  0.73469653  0.53663590     0.04200
C1061       C  0.65751824  0.89642621  0.89513328     0.02200
C1062       C  0.66258849  0.82520376  0.89674608     0.02200
C1063       C  0.64631616  0.78537094  0.86911589    -0.18300
C1064       C  0.62241762  0.81312262  0.84375748     0.02200
C1065       C  0.61136843  0.87923393  0.84557750     0.02200
C1066       C  0.63119943  0.92210555  0.86993878    -0.18300
H1067       H  0.62667159  0.97553981  0.87015028     0.04200
H1068       H  0.65025118  0.73141006  0.86903886     0.04200
C1069       C  0.29375893  0.91030145  0.85616588     0.02200
C1070       C  0.29148620  0.83966929  0.85325519     0.02200
C1071       C  0.26934147  0.80448859  0.87833336    -0.18300
C1072       C  0.24600196  0.83757296  0.90374524     0.02200
C1073       C  0.24412723  0.91061451  0.90146263     0.02200
C1074       C  0.26968938  0.94451022  0.87938251    -0.18300
H1075       H  0.27114613  0.99875498  0.88074247     0.04200
H1076       H  0.26951906  0.75010647  0.87715056     0.04200
C1077       C  0.21857709  0.95690218  0.92328403     0.86400
C1078       C  0.19673003  0.50604999  0.90113425    -0.53800
C1079       C  0.17397371  0.54395963  0.92362956     0.09300
C1080       C  0.17886704  0.52763442  0.96774859     0.20300
C1081       C  0.23973086  0.49843966  0.95308815    -0.54500
C1082       C  0.21954937  0.53942907  0.97554486     0.09500
C1083       C  0.19107392  0.91773725  0.94407023    -0.54100
C1084       C  0.17255192  0.95030222  0.97083686     0.10000
H1085       H  0.19725687  0.50935989  0.87019718     0.14500
H1086       H  0.16055515  0.55327901  0.98750700     0.00300
H1087       H  0.26850465  0.49754921  0.95524273     0.14800
H1088       H  0.17642941  0.88032334  0.92820903     0.14600
C1089       C  0.24037189  0.65949525  0.50295514     0.02200
C1090       C  0.23815028  0.58602529  0.50443955     0.02200
C1091       C  0.26066612  0.55251404  0.53028969    -0.18300
C1092       C  0.28562996  0.58704236  0.55240192     0.02200
C1093       C  0.28752773  0.65765327  0.55025474     0.02200
C1094       C  0.26464920  0.69285788  0.52649791    -0.18300
H1095       H  0.26709256  0.74684611  0.52550394     0.04200
H1096       H  0.25991775  0.49822209  0.53194972     0.04200
C1097       C  0.17315927  0.70807778  0.92940638     0.86400
C1098       C  0.15397178  0.75891887  0.95505472    -0.53800
C1099       C  0.17608321  0.79551694  0.97799011     0.09300
C1100       C  0.21666483  0.78042931  0.96997978     0.20300
C1101       C  0.19934003  0.74953015  0.90540164    -0.54500
C1102       C  0.22135214  0.79055805  0.92565110     0.09500
C1103       C  0.19393737  0.67016902  0.95726663    -0.54100
C1104       C  0.21941468  0.70190726  0.97582585     0.10000
H1105       H  0.12522408  0.76283168  0.95660920     0.14500
H1106       H  0.23489217  0.81147518  0.98737873     0.00300
H1107       H  0.19931009  0.74847564  0.87437076     0.14800
H1108       H  0.17729520  0.64507568  0.97738972     0.14600
O1109       O  0.40643469  0.94023458  0.65847990    -0.71800
O1110       O  0.48000534  0.91693377  0.72992901    -0.72100
O1111       O  0.41033151  0.92936281  0.73478888    -0.71900
O1112       O  0.47821819  0.93013269  0.65314756    -0.71900
O1113       O  0.48524982  0.54286218  0.66444492    -0.71900
O1114       O  0.41646451  0.53833082  0.74435686    -0.71900
O1115       O  0.48708368  0.52584247  0.74185133    -0.71800
O1116       O  0.41345447  0.55381506  0.66837569    -0.72000
V1117       V  0.44395551  0.93125156  0.69415799     1.35200
V1118       V  0.45057672  0.53839908  0.70417236     1.35200
C1119       C  0.39775380  0.50532060  0.65234517     0.77400
C1120       C  0.49373645  0.96400197  0.74872999     0.77500
C1121       C  0.40137668  0.98285200  0.75169322     0.77300
C1122       C  0.49467043  0.49067523  0.64653952     0.77300
O1123       O  0.48049707  0.77920726  0.65358857    -0.71800
O1124       O  0.41645581  0.80115790  0.73688014    -0.72100
O1125       O  0.48834688  0.79258953  0.72725359    -0.71900
O1126       O  0.40937038  0.78907876  0.66168089    -0.71900
O1127       O  0.41176283  0.68047690  0.66320569    -0.71900
O1128       O  0.48053183  0.68898350  0.74315088    -0.71900
O1129       O  0.40839824  0.69363130  0.73936867    -0.71800
O1130       O  0.48286469  0.67348506  0.66766771    -0.72000
V1131       V  0.44849317  0.78880080  0.69535216     1.35200
V1132       V  0.44579751  0.68569861  0.70309882     1.35200
C1133       C  0.49476884  0.72244099  0.64899450     0.77400
C1134       C  0.39968442  0.75157484  0.75036074     0.77500
C1135       C  0.49803816  0.74291124  0.74642991     0.77300
C1136       C  0.39822244  0.73338929  0.64986423     0.77300
C1137       C  0.79057223  0.61112980  0.85190310     0.02200
C1138       C  0.78921229  0.68196065  0.85272284     0.02200
C1139       C  0.76743926  0.71313653  0.88036280    -0.18300
C1140       C  0.74563011  0.67522095  0.90549594     0.02200
C1141       C  0.74115276  0.60308259  0.89672765     0.02200
C1142       C  0.76579123  0.57360740  0.87186260    -0.18300
H1143       H  0.76670819  0.51947482  0.86882705     0.04200
H1144       H  0.76823539  0.76712113  0.88269300     0.04200
C1145       C  0.78663410  0.86913498  0.54892132     0.02200
C1146       C  0.78552420  0.93950562  0.54640240     0.02200
C1147       C  0.76056668  0.96996587  0.52270680    -0.18300
C1148       C  0.73731320  0.93187411  0.99955903     0.02200
C1149       C  0.73785383  0.86009738  0.00323310     0.02200
C1150       C  0.76268825  0.83063561  0.52801906    -0.18300
H1151       H  0.76392620  0.77645597  0.53060658     0.04200
H1152       H  0.76053793  0.02426713  0.52090370     0.04200
C1153       C  0.33502745  0.74188193  0.63178004    -0.09200
C1154       C  0.37030218  0.72945036  0.62110741     0.07000
C1155       C  0.37808604  0.70628214  0.58413482    -0.03000
C1156       C  0.35046092  0.68877058  0.55963277    -0.07400
C1157       C  0.31504122  0.69471036  0.57164754     0.06100
C1158       C  0.30727946  0.72495520  0.60712084    -0.02500
Br1159     Br  0.25938478  0.73550226  0.62494987    -0.02200
H1160       H  0.32899941  0.76053563  0.66016760     0.10000
H1161       H  0.35659018  0.66646110  0.53213501     0.08000
Br1162     Br  0.42608448  0.69628937  0.56669870    -0.02600
C1163       C  0.36694992  0.49513290  0.58933278    -0.09200
C1164       C  0.36666086  0.51698479  0.62751777     0.07000
C1165       C  0.33644814  0.55089132  0.64146502    -0.03000
C1166       C  0.30805840  0.56458473  0.61732794    -0.07400
C1167       C  0.31008135  0.55020871  0.57827308     0.06100
C1168       C  0.33925152  0.51275041  0.56444621    -0.02500
Br1169     Br  0.35587565  0.06809134  0.50920732    -0.02200
H1170       H  0.39947435  0.02346383  0.57357635     0.10000
H1171       H  0.28544279  0.59196557  0.62847328     0.08000
Br1172     Br  0.33264571  0.58305394  0.69264839    -0.02600
C1173       C  0.35777309  0.92446773  0.84220379    -0.09200
C1174       C  0.32293760  0.94728977  0.83661372     0.07000
C1175       C  0.31671308  0.99668513  0.80855199    -0.03000
C1176       C  0.34389828  0.01309407  0.78270900    -0.07400
C1177       C  0.37682615  0.98034390  0.78441571     0.06100
C1178       C  0.38444313  0.93948024  0.81597541    -0.02500
Br1179     Br  0.43042679  0.90097813  0.82392842    -0.02200
H1180       H  0.36345955  0.88971619  0.86511531     0.10000
H1181       H  0.33848511  0.04774405  0.75970979     0.08000
Br1182     Br  0.27111432  0.03787698  0.80153777    -0.02600
C1183       C  0.33924224  0.75700751  0.83734044    -0.09200
C1184       C  0.31343243  0.80254351  0.82475489     0.07000
C1185       C  0.31268674  0.81992549  0.78574162    -0.03000
C1186       C  0.34111826  0.80252246  0.76204823    -0.07400
C1187       C  0.36887824  0.76252451  0.77566144     0.06100
C1188       C  0.36624257  0.73516021  0.81262454    -0.02500
Br1189     Br  0.39902810  0.67004743  0.83125272    -0.02200
H1190       H  0.33939899  0.74095926  0.86686272     0.10000
H1191       H  0.34151585  0.82012878  0.73279145     0.08000
Br1192     Br  0.27329469  0.86624185  0.76343302    -0.02600
C1193       C  0.56665574  0.96685619  0.82399201    -0.09200
C1194       C  0.57798690  0.89868576  0.82279738     0.07000
C1195       C  0.55543212  0.84769980  0.80261555    -0.03000
C1196       C  0.52355475  0.87810133  0.78789702    -0.07400
C1197       C  0.51970679  0.94557424  0.77936271     0.06100
C1198       C  0.53785126  0.98983827  0.80250637    -0.02500
Br1199     Br  0.51348662  0.56963965  0.82255314    -0.02200
H1200       H  0.57933918  0.00321256  0.84219835     0.10000
H1201       H  0.49959598  0.85025449  0.78407482     0.08000
Br1202     Br  0.57812162  0.66820165  0.78895715    -0.02600
C1203       C  0.56349928  0.75167288  0.84147146    -0.09200
C1204       C  0.60065305  0.77238418  0.82092336     0.07000
C1205       C  0.60204620  0.78430834  0.77478151    -0.03000
C1206       C  0.56648827  0.77373403  0.75005531    -0.07400
C1207       C  0.53001094  0.75015894  0.77034602     0.06100
C1208       C  0.52840054  0.74154337  0.81617959    -0.02500
Br1209     Br  0.48410887  0.73302910  0.84208601    -0.02200
H1210       H  0.56140494  0.75187937  0.87231788     0.10000
H1211       H  0.56698731  0.78345082  0.71966783     0.08000
Br1212     Br  0.64325518  0.81959138  0.75008736    -0.02600
C1213       C  0.52608529  0.73684204  0.58700646    -0.09200
C1214       C  0.52592786  0.71284919  0.62458510     0.07000
C1215       C  0.55526717  0.67602817  0.63815983    -0.03000
C1216       C  0.58334761  0.66147761  0.61384286    -0.07400
C1217       C  0.58149537  0.67813509  0.57529365     0.06100
C1218       C  0.55347524  0.71848046  0.56197383    -0.02500
Br1219     Br  0.55018116  0.74423251  0.50935441    -0.02200
H1220       H  0.50387236  0.76585253  0.57648482     0.10000
H1221       H  0.60540806  0.63204636  0.62429575     0.08000
Br1222     Br  0.55799394  0.63982470  0.68870123    -0.02600
C1223       C  0.53934426  0.54080849  0.55386011    -0.09200
C1224       C  0.57542984  0.53450379  0.56329058     0.07000
C1225       C  0.58441260  0.50251004  0.59786619    -0.03000
C1226       C  0.55766088  0.48409336  0.62395986    -0.07400
C1227       C  0.52171428  0.49552064  0.61571751     0.06100
C1228       C  0.51267833  0.52089982  0.57957659    -0.02100
Br1229     Br  0.46724262  0.07604721  0.57326943    -0.02200
H1230       H  0.53190373  0.56500302  0.52740731     0.10000
H1231       H  0.56506123  0.46435573  0.65160239     0.08000
Br1232     Br  0.63301409  0.49047411  0.61248421    -0.02600
C1233       C  0.06879480  0.75697645  0.57103121    -0.09200
C1234       C  0.09349941  0.80289383  0.58599240     0.07000
C1235       C  0.09085487  0.82154715  0.62464178    -0.03000
C1236       C  0.06061738  0.80431846  0.64546272    -0.07400
C1237       C  0.03333067  0.76622064  0.62886333     0.06100
C1238       C  0.03885745  0.73791078  0.59236168    -0.02500
Br1239     Br  0.00498093  0.67971762  0.56855679    -0.02200
H1240       H  0.07100441  0.74097116  0.54152541     0.10000
H1241       H  0.05771276  0.82326611  0.67435394     0.08000
Br1242     Br  0.12664942  0.87411123  0.64941891    -0.02600
C1243       C  0.86478642  0.77929022  0.80563752    -0.09200
C1244       C  0.86393118  0.75002133  0.76904124     0.07000
C1245       C  0.83365961  0.71320350  0.75832333    -0.03000
C1246       C  0.80681390  0.70065555  0.78502361    -0.07400
C1247       C  0.81020810  0.72061692  0.82344641     0.06100
C1248       C  0.83820431  0.76494755  0.83289337    -0.02500
Br1249     Br  0.84307598  0.80339675  0.88287014    -0.02200
H1250       H  0.88725172  0.80995686  0.81383183     0.10000
H1251       H  0.78470995  0.66919559  0.77663038     0.08000
Br1252     Br  0.82822459  0.67633470  0.70792414    -0.02600
C1253       C  0.83845470  0.81299186  0.63512725    -0.09200
C1254       C  0.87081597  0.79428885  0.61834046     0.07000
C1255       C  0.87368802  0.79141963  0.57831678    -0.03000
C1256       C  0.84538166  0.81343226  0.55575550    -0.07400
C1257       C  0.81362122  0.83538918  0.57272254     0.06100
C1258       C  0.80958056  0.83133865  0.61256624    -0.02500
Br1259     Br  0.76498727  0.84860237  0.63713979    -0.02200
H1260       H  0.83565500  0.81336356  0.66593947     0.10000
H1261       H  0.84842791  0.81506944  0.52499510     0.08000
Br1262     Br  0.91554749  0.75895765  0.55332703    -0.02600
C1263       C  0.05252507  0.01907522  0.61889839    -0.09200
C1264       C  0.02011599  0.98437944  0.61772574     0.07000
C1265       C  0.01542874  0.93367243  0.59015173    -0.03000
C1266       C  0.04325215  0.91597119  0.56581373    -0.07400
C1267       C  0.07703232  0.94426715  0.57024387     0.06100
C1268       C  0.08113121  0.99886646  0.59564631    -0.02500
Br1269     Br  0.12553658  0.54770628  0.60160590    -0.02200
H1270       H  0.05610341  0.56330236  0.63962223     0.10000
H1271       H  0.03923179  0.87611970  0.54519604     0.08000
Br1272     Br  0.97226947  0.88396055  0.58580244    -0.02600
C1273       C  0.83349011  0.01925006  0.62829547    -0.09200
C1274       C  0.86863377  0.01226962  0.61559354     0.07000
C1275       C  0.87516979  0.00127625  0.57656815    -0.03000
C1276       C  0.84709311  0.98283003  0.55267396    -0.07400
C1277       C  0.81221803  0.98040437  0.56690016     0.06100
C1278       C  0.80518123  0.00547493  0.60372216    -0.02500
Br1279     Br  0.75759630  0.02000357  0.62151268    -0.02200
H1280       H  0.82711201  0.52929580  0.66137296     0.10000
H1281       H  0.85259720  0.96764410  0.52351466     0.08000
Br1282     Br  0.92116926  0.01547210  0.55468938    -0.02600
C1283       C  0.80782672  0.53404476  0.79896918    -0.09200
C1284       C  0.81796945  0.57496333  0.82972636     0.07000
C1285       C  0.85421670  0.58598686  0.83683261    -0.03000
C1286       C  0.87920757  0.56636234  0.80974245    -0.07400
C1287       C  0.86876019  0.53120602  0.77701944     0.06100
C1288       C  0.83321946  0.51062468  0.77299517    -0.02500
Br1289     Br  0.81760126  0.45478548  0.73169679    -0.02200
H1290       H  0.78002605  0.52316186  0.79414104     0.10000
H1291       H  0.90686930  0.57935156  0.81394671     0.08000
Br1292     Br  0.87077594  0.62658814  0.88315235    -0.02600
C1293       C  0.05932198  0.69887006  0.75718871    -0.09200
C1294       C  0.02145629  0.72444343  0.77308738     0.07000
C1295       C  0.01552991  0.73805780  0.81803294    -0.03000
C1296       C  0.04791677  0.73062420  0.84712310    -0.07400
C1297       C  0.08652070  0.70773166  0.83114046     0.06100
C1298       C  0.09237064  0.69100785  0.78581844    -0.02500
Br1299     Br  0.13641337  0.65595570  0.76708163    -0.02200
H1300       H  0.06275240  0.68829722  0.72706161     0.10000
H1301       H  0.04302218  0.73363703  0.87756216     0.08000
Br1302     Br  0.96848294  0.75023710  0.83804233    -0.02600
C1303       C  0.05361045  0.51256564  0.83450896    -0.09200
C1304       C  0.06508671  0.58062328  0.83317641     0.07000
C1305       C  0.04349830  0.63044756  0.81069399    -0.03000
C1306       C  0.01196327  0.60019363  0.79558018    -0.07400
C1307       C  0.00914422  0.53291135  0.78661360     0.06100
C1308       C  0.02590875  0.48885208  0.81107217    -0.02500
Br1309     Br  0.00211287  0.90573813  0.82263881    -0.02200
H1310       H  0.06554949  0.47766177  0.85417693     0.10000
H1311       H  0.98886135  0.62882792  0.78798752     0.08000
Br1312     Br  0.06778569  0.80841080  0.79384492    -0.02600
loop_ 
_geom_bond_atom_site_label_1 
_geom_bond_atom_site_label_2 
_geom_bond_distance 
_geom_bond_site_symmetry_2 
_ccdc_geom_bond_type 
C1            C2   1.378       .  A
C1            C6   1.359       .  A
C1          C313   1.389       .  S
C2            C3   1.433       .  A
C2          C320   1.550       .  S
C3            C4   1.442       .  A
C3            H8   1.081       .  S
C4            C5   1.451       .  A
C4           C95   1.530       .  S
C5            C6   1.381       .  A
C5          C113   1.515       .  S
C6            H7   1.087       .  S
O9           V17   1.892       .  S
O9          C675   1.257       .  A
O10          V17   1.863       .  S
O10          C20   1.257       .  A
O11          V17   1.909       .  S
O11         C677   1.264   1_545  A
O12          V17   1.894       .  S
O12          C22   1.262       .  A
O13          V18   1.894       .  S
O13         C678   1.259       .  A
O14          V18   1.895       .  S
O14          C21   1.263       .  A
O15          V18   1.945       .  S
O15         C676   1.270       .  A
O16          V18   1.915       .  S
O16          C19   1.268       .  A
V17         V674   2.076   1_545  T
V18         V673   2.073       .  T
C19         C290   1.469       .  S
C19         O665   1.257       .  A
C20         C323   1.497   1_655  S
C20         O671   1.270   1_545  A
C21         C280   1.477   1_655  S
C21         O667   1.264       .  A
C22         C303   1.461       .  S
C22         O669   1.258   1_545  A
O23          V31   1.908       .  S
O23          C33   1.263       .  A
O24          V31   1.903       .  S
O24          C34   1.264       .  A
O25          V31   1.894       .  S
O25          C35   1.259       .  A
O26          V31   1.882       .  S
O26          C36   1.256       .  A
O27          V32   1.896       .  S
O27          C36   1.260       .  A
O28          V32   1.895       .  S
O28          C35   1.262       .  A
O29          V32   1.903       .  S
O29          C34   1.261       .  A
O30          V32   1.889       .  S
O30          C33   1.263       .  A
V31          V32   2.085       .  T
C33         C253   1.478   1_655  S
C34         C260   1.478       .  S
C35         C270   1.463       .  S
C36         C310   1.458   1_655  S
C37          C38   1.420       .  A
C37          C42   1.400       .  A
C37         C283   1.494       .  S
C38          C39   1.399       .  A
C38         C250   1.487       .  S
C39         C368   1.405       .  A
C39          H44   1.085       .  S
C40          C41   1.439       .  A
C40         C367   1.405       .  A
C40         C115   1.504       .  S
C41         C370   1.410       .  A
C41         C100   1.499       .  S
C42         C369   1.410       .  A
C42          H43   1.079       .  S
C45          C70   1.574       .  S
C45          C51   1.523       .  S
C45          C49   1.553       .  S
C45         C374   1.543       .  S
C46         C373   1.543   1_554  S
C46          H53   1.086       .  S
C46         C375   1.386   1_554  D
C47         C165   1.494       .  S
C47          C48   1.564       .  S
C47         C374   1.386       .  D
C48          C52   1.589       .  S
C48          C50   1.514       .  S
C48          H54   1.109       .  S
C49          H55   1.087       .  S
C49          C50   1.375       .  D
C50          C78   1.487       .  S
C51          H56   1.078       .  S
C51          C52   1.349       .  D
C52         C156   1.539       .  S
C57         C157   1.553       .  S
C57          C58   1.541       .  S
C57          C63   1.512       .  S
C57          C61   1.543   1_545  S
C58          H65   1.087       .  S
C58         C715   1.365   1_545  D
C59         C164   1.501       .  S
C59          C60   1.530       .  S
C59         C714   1.368       .  D
C60          C62   1.568       .  S
C60         C720   1.590       .  S
C60          H66   1.109       .  S
C61         H723   1.086       .  S
C61         C718   1.386       .  D
C62          C77   1.499       .  S
C62         C717   1.387       .  D
C63          H68   1.077       .  S
C63          C64   1.345       .  D
C64          C69   1.522       .  S
C64         C716   1.590   1_545  S
H67         C717   1.086       .  S
C69          C70   1.481       .  A
C69         C402   1.416       .  A
C70         C399   1.402       .  A
C71          C72   1.391       .  A
C71         C398   1.402       .  A
C71          H76   1.082       .  S
C72          C73   1.412       .  A
C72         C233   1.473       .  S
C73          C74   1.399       .  A
C73         C240   1.501       .  S
C74         C397   1.416   1_554  A
C74          H75   1.082   1_545  S
C77          C78   1.435       .  A
C77          C82   1.423       .  A
C78          C79   1.392       .  A
C79          C80   1.381       .  A
C79          H84   1.086       .  S
C80          C81   1.382       .  A
C80         C220   1.402       .  S
C81          C82   1.418       .  A
C81         C210   1.538       .  S
C82          H83   1.079       .  S
C85          C86   1.416       .  A
C85          C90   1.393       .  A
C85         C190   1.494       .  S
C86          C87   1.400       .  A
C86         C200   1.490       .  S
C87          C88   1.412       .  A
C87          H92   1.085       .  S
C88          C89   1.460       .  A
C88         C118   1.527       .  S
C89          C90   1.407       .  A
C89          C93   1.535       .  S
C90          H91   1.083       .  S
C93          C99   1.486       .  S
C93         C750   1.548       .  S
C93         C753   1.543       .  S
C94         C749   1.546   1_545  S
C94         H101   1.086       .  S
C94          C95   1.384       .  D
C95          C96   1.590       .  S
C96          C98   1.572       .  S
C96         C756   1.546   1_545  S
C96         H102   1.100       .  S
C97         C749   1.544   1_545  S
C97         H103   1.087   1_545  S
C97          C98   1.363       .  D
C98         C434   1.539       .  S
C99         H104   1.081       .  S
C99         C100   1.334       .  D
C100        C752   1.547       .  S
C105        C106   1.467       .  A
C105        C110   1.404       .  A
C105        C448   1.502   1_554  S
C106        C107   1.409       .  A
C106        C426   1.539   1_554  S
C107        C108   1.397       .  A
C107        H112   1.085   1_545  S
C108        C109   1.410       .  A
C108        C183   1.484       .  S
C109        C110   1.395       .  A
C109        C173   1.479       .  S
C110        H111   1.081       .  S
C113        C114   1.531       .  S
C113        C119   1.467       .  S
C113        C117   1.536       .  S
C114        H121   1.087       .  S
C114        C115   1.369       .  D
C115        C116   1.583       .  S
C116        C120   1.581       .  S
C116        C118   1.577       .  S
C116        H122   1.108       .  S
C117        H123   1.087       .  S
C117        C118   1.364       .  D
C119        H124   1.062       .  S
C119        C120   1.324       .  D
C120        C433   1.502       .  S
O125        V133   1.902       .  S
O125        C791   1.260       .  A
O126        V133   1.873       .  S
O126        C136   1.259       .  A
O127        V133   1.898       .  S
O127        C137   1.263       .  A
O128        V133   1.917       .  S
O128        C794   1.265       .  A
O129        V134   1.899       .  S
O129        C138   1.260   1_545  A
O130        V134   1.901       .  S
O130        C793   1.259   1_545  A
O131        V134   1.934       .  S
O131        C792   1.270   1_545  A
O132        V134   1.911       .  S
O132        C135   1.265   1_545  A
V133        V790   2.083       .  T
V134        V789   2.081   1_545  T
C135        C180   1.475   1_565  S
C135        O781   1.258       .  A
C136        C213   1.495       .  S
C136        O787   1.267       .  A
C137        C193   1.471       .  S
C137        O786   1.261       .  A
C138        C243   1.489       .  S
C138        O784   1.268       .  A
O139        V147   1.897       .  S
O139        C149   1.261       .  A
O140        V147   1.906       .  S
O140        C150   1.267       .  A
O141        V147   1.881       .  S
O141        C151   1.256       .  A
O142        V147   1.892       .  S
O142        C152   1.258       .  A
O143        V148   1.902       .  S
O143        C152   1.263       .  A
O144        V148   1.917       .  S
O144        C151   1.265       .  A
O145        V148   1.894       .  S
O145        C150   1.258       .  A
O146        V148   1.880       .  S
O146        C149   1.258       .  A
V147        V148   2.085       .  T
C149        C230   1.461       .  S
C150        C203   1.476       .  S
C151        C223   1.479       .  S
C152        C170   1.464       .  S
C153        C154   1.412       .  A
C153        C158   1.383       .  A
C153        C300   1.480       .  S
C154        C155   1.406       .  A
C154        C263   1.496       .  S
C155        C156   1.417       .  A
C155        H160   1.080       .  S
C156        C157   1.480       .  A
C157        C158   1.400       .  A
C158        H159   1.085       .  S
C161        C162   1.405       .  A
C161        C166   1.389       .  A
C161        C273   1.474       .  S
C162        C163   1.395       .  A
C162        C293   1.479       .  S
C163        C492   1.414       .  A
C163        H168   1.085       .  S
C164        C165   1.441       .  A
C164        C491   1.414       .  A
C165        C494   1.406       .  A
C166        C493   1.406       .  A
C166        H167   1.086       .  S
C169        C170   1.402       .  A
C169        C174   1.397       .  A
C169        H176   1.084       .  S
C170        C171   1.406       .  A
C171        C172   1.399       .  A
C171       Br178   1.918       .  S
C172        C173   1.403       .  A
C172        H177   1.083       .  S
C173        C174   1.406       .  A
C174       Br175   1.919       .  S
C179        C180   1.399       .  A
C179        C184   1.398       .  A
C179        H842   1.077       .  S
C180        C181   1.409       .  A
C181        C182   1.401       .  A
C181       Br188   1.912   1_545  S
C182        C183   1.401       .  A
C182        H187   1.083       .  S
C183        C184   1.408       .  A
C184       Br841   1.919       .  S
Br185       C840   1.916       .  S
H186        C835   1.083       .  S
C189        C190   1.406       .  A
C189        C194   1.394       .  A
C189        H196   1.083       .  S
C190        C191   1.416       .  A
C191        C192   1.400       .  A
C191       Br198   1.921       .  S
C192        C193   1.398       .  A
C192        H197   1.075       .  S
C193        C194   1.404       .  A
C194       Br195   1.916       .  S
C199        C200   1.404       .  A
C199        C204   1.404       .  A
C199        H206   1.083       .  S
C200        C201   1.409       .  A
C201        C202   1.395       .  A
C201       Br208   1.918       .  S
C202        C203   1.402       .  A
C202        H207   1.084       .  S
C203        C204   1.413       .  A
C204       Br205   1.916       .  S
C209        C210   1.425       .  A
C209        C214   1.398       .  A
C209        H216   1.077       .  S
C210        C211   1.501       .  A
C211        C212   1.438       .  A
C211       Br218   3.705       .  S
C212        C213   1.384       .  A
C212        H217   1.066       .  S
C213        C214   1.381       .  A
C214       Br871   1.904       .  S
Br215       C870   1.899   1_545  S
C219        C220   1.626       .  A
C219        C224   1.605       .  A
C219        H226   1.083       .  S
C220        C221   1.637       .  A
C221        C222   1.617       .  A
C221       Br228   1.913       .  S
C222        C223   1.619       .  A
C222        H227   1.082       .  S
C223        C224   1.614       .  A
C224       Br225   1.910       .  S
C229        C230   1.399       .  A
C229        C234   1.397       .  A
C229        H236   1.084       .  S
C230        C231   1.412       .  A
C231        C232   1.388       .  A
C231       Br238   1.920       .  S
C232        C233   1.396       .  A
C232        H237   1.084       .  S
C233        C234   1.412       .  A
C234       Br235   1.919       .  S
C239        C240   1.401       .  A
C239        C244   1.398       .  A
C239        H246   1.084       .  S
C240        C241   1.415   1_545  A
C241        C242   1.412       .  A
C241       Br248   1.917       .  S
C242        C243   1.407       .  A
C242        H247   1.083       .  S
C243        C244   1.411   1_565  A
C244       Br901   1.910       .  S
Br245       C900   1.913       .  S
C249        C250   1.408       .  A
C249        C254   1.405       .  A
C249        H256   1.083       .  S
C250        C251   1.405       .  A
C251        C252   1.394       .  A
C251       Br258   1.916       .  S
C252        C253   1.405       .  A
C252        H257   1.084       .  S
C253        C254   1.410       .  A
C254       Br255   1.917       .  S
C259        C260   1.407       .  A
C259        C264   1.408       .  A
C259        H266   1.083       .  S
C260        C261   1.407       .  A
C261        C262   1.394       .  A
C261       Br268   1.921       .  S
C262        C263   1.406       .  A
C262        H267   1.084       .  S
C263        C264   1.413       .  A
C264       Br265   1.920       .  S
C269        C270   1.401       .  A
C269        C274   1.395       .  A
C269        H276   1.083       .  S
C270        C271   1.405       .  A
C271        C272   1.397       .  A
C271       Br278   1.910       .  S
C272        C273   1.401       .  A
C272        H277   1.084       .  S
C273        C274   1.404       .  A
C274       Br275   1.915       .  S
C279        C280   1.405       .  A
C279        C284   1.408       .  A
C279        H942   1.083       .  S
C280        C281   1.406       .  A
C281        C282   1.392       .  A
C281       Br288   1.907   1_455  S
C282        C283   1.400       .  A
C282        H287   1.083       .  S
C283        C284   1.414       .  A
C284       Br941   1.918       .  S
Br285       C940   1.917   1_545  S
H286        C935   1.083       .  S
C289        C290   1.402       .  A
C289        C294   1.399       .  A
C289        H952   1.081       .  S
C290        C291   1.403       .  A
C291        C292   1.398       .  A
C291       Br298   1.911       .  S
C292        C293   1.403       .  A
C292        H297   1.084       .  S
C293        C294   1.405       .  A
C294       Br295   1.917       .  S
H296        C945   1.081       .  S
C299        C300   1.404       .  A
C299        C304   1.398       .  A
C299        H306   1.083       .  S
C300        C301   1.407       .  A
C301        C302   1.392       .  A
C301       Br308   1.918       .  S
C302        C303   1.400       .  A
C302        H307   1.084       .  S
C303        C304   1.407       .  A
C304       Br305   1.917   1_545  S
C309        C310   1.610       .  A
C309        C314   1.608       .  A
C309        H316   1.083       .  S
C310        C311   1.610       .  A
C311        C312   1.600       .  A
C311       Br318   1.917   1_455  S
C312        C313   1.622       .  A
C312        H317   1.082       .  S
C313        C314   1.636       .  A
C314       Br315   1.912       .  S
C319        C320   1.424       .  A
C319        C324   1.410   1_545  A
C319        H326   1.080   1_545  S
C320        C321   1.508       .  A
C321        C322   1.435       .  A
C321       Br328   3.713       .  S
C322        C323   1.381       .  A
C322        H327   1.076   1_455  S
C323        C324   1.382   1_545  A
C324       Br981   1.892       .  S
Br325       C980   1.897       .  S
C329        C330   1.378       .  A
C329        C334   1.359       .  A
C329        C641   1.389       .  S
C330        C331   1.433       .  A
C330        C648   1.550       .  S
C331        C332   1.442       .  A
C331        H336   1.081       .  S
C332        C333   1.451       .  A
C332        C423   1.530       .  S
C333        C334   1.381       .  A
C333        C441   1.515       .  S
C334        H335   1.087       .  S
O337        V345   1.892       .  S
O337       C1003   1.257       .  A
O338        V345   1.863       .  S
O338        C348   1.257       .  A
O339        V345   1.909       .  S
O339       C1005   1.264   1_545  A
O340        V345   1.894       .  S
O340        C350   1.262       .  A
O341        V346   1.894       .  S
O341       C1006   1.259       .  A
O342        V346   1.895       .  S
O342        C349   1.263       .  A
O343        V346   1.945       .  S
O343       C1004   1.270       .  A
O344        V346   1.915       .  S
O344        C347   1.268       .  A
V345       V1002   2.076   1_545  T
V346       V1001   2.073       .  T
C347        C618   1.469       .  S
C347        O993   1.257       .  A
C348        C651   1.497   1_655  S
C348        O999   1.270   1_545  A
C349        C608   1.477   1_655  S
C349        O995   1.264       .  A
C350        C631   1.460       .  S
C350        O997   1.258   1_545  A
O351        V359   1.908       .  S
O351        C361   1.263       .  A
O352        V359   1.903       .  S
O352        C362   1.264       .  A
O353        V359   1.894       .  S
O353        C363   1.259       .  A
O354        V359   1.882       .  S
O354        C364   1.256       .  A
O355        V360   1.896       .  S
O355        C364   1.260       .  A
O356        V360   1.895       .  S
O356        C363   1.262       .  A
O357        V360   1.903       .  S
O357        C362   1.261       .  A
O358        V360   1.889       .  S
O358        C361   1.263       .  A
V359        V360   2.085       .  T
C361        C581   1.478   1_655  S
C362        C588   1.478       .  S
C363        C598   1.463       .  S
C364        C638   1.458   1_655  S
C365        C366   1.420       .  A
C365        C370   1.400       .  A
C365        C611   1.494       .  S
C366        C367   1.399       .  A
C366        C578   1.487       .  S
C367        H372   1.085       .  S
C368        C369   1.439       .  A
C368        C443   1.504   1_554  S
C369        C428   1.499   1_554  S
C370        H371   1.079       .  S
C373        C398   1.574   1_556  S
C373        C379   1.523       .  S
C373        C377   1.553       .  S
C374        H381   1.086       .  S
C375        C493   1.494   1_556  S
C375        C376   1.564       .  S
C376        C380   1.589       .  S
C376        C378   1.514       .  S
C376        H382   1.109       .  S
C377        H383   1.087       .  S
C377        C378   1.375       .  D
C378        C406   1.487       .  S
C379        H384   1.078       .  S
C379        C380   1.349       .  D
C380        C484   1.539       .  S
C385        C485   1.553       .  S
C385        C386   1.541       .  S
C385        C391   1.512       .  S
C385        C389   1.543   1_545  S
C386        H393   1.087       .  S
C386       C1043   1.365   1_545  D
C387        C492   1.501   1_556  S
C387        C388   1.530       .  S
C387       C1042   1.368       .  D
C388       C1048   1.590       .  S
C388        C390   1.568       .  S
C388        H394   1.109       .  S
C389       H1051   1.086       .  S
C389       C1046   1.386       .  D
C390        C405   1.499       .  S
C390       C1045   1.387       .  D
C391        H396   1.077       .  S
C391        C392   1.345       .  D
C392        C397   1.522       .  S
C392       C1044   1.590   1_545  S
H395       C1045   1.086       .  S
C397        C398   1.481   1_556  A
C399        C400   1.391       .  A
C399        H404   1.082       .  S
C400        C401   1.412       .  A
C400        C561   1.473       .  S
C401        C402   1.399       .  A
C401        C568   1.501       .  S
C402        H403   1.082   1_545  S
C405        C406   1.435       .  A
C405        C410   1.423       .  A
C406        C407   1.392       .  A
C407        C408   1.381       .  A
C407        H412   1.086       .  S
C408        C409   1.382       .  A
C408        C548   1.402       .  S
C409        C410   1.418       .  A
C409        C538   1.538       .  S
C410        H411   1.079       .  S
C413        C414   1.416       .  A
C413        C418   1.393       .  A
C413        C518   1.494       .  S
C414        C415   1.400       .  A
C414        C528   1.490       .  S
C415        C416   1.412       .  A
C415        H420   1.085       .  S
C416        C417   1.460       .  A
C416        C446   1.526       .  S
C417        C418   1.407       .  A
C417        C421   1.535       .  S
C418        H419   1.083       .  S
C421       C1078   1.548       .  S
C421        C427   1.486       .  S
C421       C1081   1.543       .  S
C422       C1077   1.546   1_545  S
C422        H429   1.086       .  S
C422        C423   1.384       .  D
C423        C424   1.590       .  S
C424       C1084   1.546   1_545  S
C424        C426   1.572       .  S
C424        H430   1.100       .  S
C425       C1077   1.544   1_545  S
C425        H431   1.087   1_545  S
C425        C426   1.363       .  D
C427        H432   1.081       .  S
C427        C428   1.334       .  D
C428       C1080   1.547       .  S
C433        C434   1.467       .  A
C433        C438   1.404       .  A
C434        C435   1.409       .  A
C435        C436   1.397       .  A
C435        H440   1.085   1_545  S
C436        C437   1.410       .  A
C436        C511   1.484       .  S
C437        C438   1.395       .  A
C437        C501   1.479       .  S
C438        H439   1.081       .  S
C441        C442   1.531       .  S
C441        C447   1.467       .  S
C441        C445   1.536       .  S
C442        H449   1.087       .  S
C442        C443   1.369       .  D
C443        C444   1.583       .  S
C444        C448   1.581       .  S
C444        C446   1.577       .  S
C444        H450   1.108       .  S
C445        H451   1.087       .  S
C445        C446   1.364       .  D
C447        H452   1.061       .  S
C447        C448   1.324       .  D
O453        V461   1.902       .  S
O453       C1119   1.260       .  A
O454        V461   1.873       .  S
O454        C464   1.259       .  A
O455        V461   1.898       .  S
O455        C465   1.263       .  A
O456        V461   1.917       .  S
O456       C1122   1.265       .  A
O457        V462   1.899       .  S
O457        C466   1.260   1_545  A
O458        V462   1.901       .  S
O458       C1121   1.259   1_545  A
O459        V462   1.934       .  S
O459       C1120   1.270   1_545  A
O460        V462   1.911       .  S
O460        C463   1.265   1_545  A
V461       V1118   2.083       .  T
V462       V1117   2.081   1_545  T
C463        C508   1.475   1_565  S
C463       O1109   1.258       .  A
C464        C541   1.495       .  S
C464       O1115   1.267       .  A
C465        C521   1.471       .  S
C465       O1114   1.261       .  A
C466        C571   1.489       .  S
C466       O1112   1.268       .  A
O467        V475   1.897       .  S
O467        C477   1.261       .  A
O468        V475   1.906       .  S
O468        C478   1.267       .  A
O469        V475   1.881       .  S
O469        C479   1.256       .  A
O470        V475   1.892       .  S
O470        C480   1.258       .  A
O471        V476   1.902       .  S
O471        C480   1.263       .  A
O472        V476   1.917       .  S
O472        C479   1.265       .  A
O473        V476   1.894       .  S
O473        C478   1.258       .  A
O474        V476   1.880       .  S
O474        C477   1.258       .  A
V475        V476   2.085       .  T
C477        C558   1.461       .  S
C478        C531   1.476       .  S
C479        C551   1.479       .  S
C480        C498   1.464       .  S
C481        C482   1.412       .  A
C481        C486   1.383       .  A
C481        C628   1.480       .  S
C482        C483   1.406       .  A
C482        C591   1.496       .  S
C483        C484   1.417       .  A
C483        H488   1.080       .  S
C484        C485   1.480       .  A
C485        C486   1.400       .  A
C486        H487   1.085       .  S
C489        C490   1.405       .  A
C489        C494   1.389       .  A
C489        C601   1.474       .  S
C490        C491   1.395       .  A
C490        C621   1.479       .  S
C491        H496   1.085       .  S
C492        C493   1.441       .  A
C494        H495   1.086       .  S
C497        C498   1.402       .  A
C497        C502   1.397       .  A
C497        H504   1.084       .  S
C498        C499   1.406       .  A
C499        C500   1.399       .  A
C499       Br506   1.918       .  S
C500        C501   1.403       .  A
C500        H505   1.083       .  S
C501        C502   1.406       .  A
C502       Br503   1.919       .  S
C507        C508   1.399       .  A
C507        C512   1.399       .  A
C507       H1170   1.077       .  S
C508        C509   1.409       .  A
C509        C510   1.401       .  A
C509       Br516   1.912   1_545  S
C510        C511   1.401       .  A
C510        H515   1.083       .  S
C511        C512   1.408       .  A
C512      Br1169   1.919       .  S
Br513      C1168   1.916       .  S
H514       C1163   1.083       .  S
C517        C518   1.406       .  A
C517        C522   1.394       .  A
C517        H524   1.083       .  S
C518        C519   1.416       .  A
C519        C520   1.400       .  A
C519       Br526   1.921       .  S
C520        C521   1.399       .  A
C520        H525   1.075       .  S
C521        C522   1.404       .  A
C522       Br523   1.916       .  S
C527        C528   1.404       .  A
C527        C532   1.404       .  A
C527        H534   1.083       .  S
C528        C529   1.409       .  A
C529        C530   1.395       .  A
C529       Br536   1.918       .  S
C530        C531   1.402       .  A
C530        H535   1.084       .  S
C531        C532   1.413       .  A
C532       Br533   1.915       .  S
C537        C538   1.425       .  A
C537        C542   1.398       .  A
C537        H544   1.077       .  S
C538        C539   1.501       .  A
C539        C540   1.438       .  A
C539       Br546   3.706       .  S
C540        C541   1.384       .  A
C540        H545   1.066       .  S
C541        C542   1.381       .  A
C542      Br1199   1.904       .  S
Br543      C1198   1.899   1_545  S
C547        C548   1.626       .  A
C547        C552   1.605       .  A
C547        H554   1.083       .  S
C548        C549   1.637       .  A
C549        C550   1.617       .  A
C549       Br556   1.913       .  S
C550        C551   1.619       .  A
C550        H555   1.082       .  S
C551        C552   1.614       .  A
C552       Br553   1.910       .  S
C557        C558   1.399       .  A
C557        C562   1.397       .  A
C557        H564   1.084       .  S
C558        C559   1.412       .  A
C559        C560   1.388       .  A
C559       Br566   1.920       .  S
C560        C561   1.396       .  A
C560        H565   1.084       .  S
C561        C562   1.412       .  A
C562       Br563   1.919       .  S
C567        C568   1.401       .  A
C567        C572   1.398       .  A
C567        H574   1.084       .  S
C568        C569   1.415   1_545  A
C569        C570   1.412       .  A
C569       Br576   1.917       .  S
C570        C571   1.407       .  A
C570        H575   1.083       .  S
C571        C572   1.411   1_565  A
C572      Br1229   1.910       .  S
Br573      C1228   1.913       .  S
C577        C578   1.408       .  A
C577        C582   1.405       .  A
C577        H584   1.083       .  S
C578        C579   1.405       .  A
C579        C580   1.394       .  A
C579       Br586   1.916       .  S
C580        C581   1.405       .  A
C580        H585   1.084       .  S
C581        C582   1.410       .  A
C582       Br583   1.917       .  S
C587        C588   1.407       .  A
C587        C592   1.408       .  A
C587        H594   1.083       .  S
C588        C589   1.407       .  A
C589        C590   1.394       .  A
C589       Br596   1.921       .  S
C590        C591   1.406       .  A
C590        H595   1.084       .  S
C591        C592   1.413       .  A
C592       Br593   1.920       .  S
C597        C598   1.401       .  A
C597        C602   1.395       .  A
C597        H604   1.084       .  S
C598        C599   1.405       .  A
C599        C600   1.397       .  A
C599       Br606   1.910       .  S
C600        C601   1.401       .  A
C600        H605   1.084       .  S
C601        C602   1.404       .  A
C602       Br603   1.915       .  S
C607        C608   1.405       .  A
C607        C612   1.408       .  A
C607       H1270   1.083       .  S
C608        C609   1.406       .  A
C609        C610   1.392       .  A
C609       Br616   1.907   1_455  S
C610        C611   1.400       .  A
C610        H615   1.083       .  S
C611        C612   1.414       .  A
C612      Br1269   1.918       .  S
Br613      C1268   1.917   1_545  S
H614       C1263   1.083       .  S
C617        C618   1.402       .  A
C617        C622   1.399       .  A
C617       H1280   1.081       .  S
C618        C619   1.403       .  A
C619        C620   1.398       .  A
C619       Br626   1.911       .  S
C620        C621   1.403       .  A
C620        H625   1.084       .  S
C621        C622   1.405       .  A
C622       Br623   1.917       .  S
H624       C1273   1.081       .  S
C627        C628   1.404       .  A
C627        C632   1.398       .  A
C627        H634   1.083       .  S
C628        C629   1.407       .  A
C629        C630   1.392       .  A
C629       Br636   1.918       .  S
C630        C631   1.400       .  A
C630        H635   1.084       .  S
C631        C632   1.407       .  A
C632       Br633   1.917   1_545  S
C637        C638   1.610       .  A
C637        C642   1.608       .  A
C637        H644   1.082       .  S
C638        C639   1.610       .  A
C639        C640   1.600       .  A
C639       Br646   1.917   1_455  S
C640        C641   1.622       .  A
C640        H645   1.082       .  S
C641        C642   1.636       .  A
C642       Br643   1.912       .  S
C647        C648   1.424       .  A
C647        C652   1.410   1_545  A
C647        H654   1.080   1_545  S
C648        C649   1.508       .  A
C649        C650   1.435       .  A
C649       Br656   3.713       .  S
C650        C651   1.381       .  A
C650        H655   1.076   1_455  S
C651        C652   1.382   1_545  A
C652      Br1309   1.892       .  S
Br653      C1308   1.897       .  S
C657        C658   1.378       .  A
C657        C662   1.358       .  A
C657        C969   1.388       .  S
C658        C659   1.434       .  A
C658        C976   1.551       .  S
C659        C660   1.444       .  A
C659        H664   1.081       .  S
C660        C661   1.452       .  A
C660        C751   1.532       .  S
C661        C662   1.380       .  A
C661        C769   1.514       .  S
C662        H663   1.088       .  S
O665        V673   1.893       .  S
O666        V673   1.863       .  S
O666        C676   1.257       .  A
O667        V673   1.910       .  S
O668        V673   1.891       .  S
O668        C678   1.262       .  A
O669        V674   1.893       .  S
O670        V674   1.894       .  S
O670        C677   1.263       .  A
O671        V674   1.944       .  S
O672        V674   1.916       .  S
O672        C675   1.268   1_565  A
C675        C946   1.470       .  S
C676        C979   1.499   1_655  S
C677        C936   1.476   1_655  S
C678        C959   1.458       .  S
O679        V687   1.908       .  S
O679        C689   1.263       .  A
O680        V687   1.905       .  S
O680        C690   1.265       .  A
O681        V687   1.899       .  S
O681        C691   1.260       .  A
O682        V687   1.885       .  S
O682        C692   1.256       .  A
O683        V688   1.898       .  S
O683        C692   1.260       .  A
O684        V688   1.897       .  S
O684        C691   1.263       .  A
O685        V688   1.909       .  S
O685        C690   1.263       .  A
O686        V688   1.892       .  S
O686        C689   1.264       .  A
V687        V688   2.083       .  T
C689        C909   1.478   1_655  S
C690        C916   1.485       .  S
C691        C926   1.467       .  S
C692        C966   1.462   1_655  S
C693        C694   1.419       .  A
C693        C698   1.399       .  A
C693        C939   1.493       .  S
C694        C695   1.399       .  A
C694        C906   1.486       .  S
C695       C1024   1.405       .  A
C695        H700   1.085       .  S
C696       C1023   1.405       .  A
C696        C697   1.438       .  A
C696        C771   1.503       .  S
C697       C1026   1.409       .  A
C697        C756   1.498       .  S
C698       C1025   1.409       .  A
C698        H699   1.079       .  S
C701        C726   1.571       .  S
C701       C1030   1.542       .  S
C701        C707   1.524       .  S
C701        C705   1.551       .  S
C702       C1029   1.542   1_554  S
C702        H709   1.086       .  S
C702       C1031   1.386   1_554  D
C703        C821   1.493       .  S
C703        C704   1.566       .  S
C703       C1030   1.386       .  D
C704        C708   1.588       .  S
C704        C706   1.517       .  S
C704        H710   1.109       .  S
C705        H711   1.087       .  S
C705        C706   1.373       .  D
C706        C734   1.488       .  S
C707        H712   1.078       .  S
C707        C708   1.350       .  D
C708        C812   1.539       .  S
C713        C813   1.559       .  S
C713        C714   1.544       .  S
C713        C719   1.514       .  S
C713        C717   1.544       .  S
C714        H721   1.087       .  S
C715        C820   1.502       .  S
C715        C716   1.534       .  S
C716        C718   1.571       .  S
C716        H722   1.109       .  S
C718        C733   1.501       .  S
C719        H724   1.078       .  S
C719        C720   1.345       .  D
C720        C725   1.525       .  S
C725        C726   1.481       .  A
C725       C1058   1.416       .  A
C726       C1055   1.403       .  A
C727       C1054   1.403       .  A
C727        C728   1.390       .  A
C727        H732   1.083       .  S
C728        C729   1.408       .  A
C728        C889   1.469       .  S
C729        C730   1.400       .  A
C729        C896   1.498       .  S
C730       C1053   1.416   1_554  A
C730        H731   1.082       .  S
C733        C734   1.434       .  A
C733        C738   1.425       .  A
C734        C735   1.394       .  A
C735        C736   1.383       .  A
C735        H740   1.086       .  S
C736        C737   1.383       .  A
C736        C876   1.404       .  S
C737        C738   1.420       .  A
C737        C866   1.542       .  S
C738        H739   1.079       .  S
C741        C742   1.414       .  A
C741        C746   1.393       .  A
C741        C846   1.490       .  S
C742        C743   1.399       .  A
C742        C856   1.489       .  S
C743        C744   1.411       .  A
C743        H748   1.085       .  S
C744        C745   1.460       .  A
C744        C774   1.526       .  S
C745        C746   1.407       .  A
C745        C749   1.534       .  S
C746        H747   1.084       .  S
C749        C755   1.487       .  S
C750        H757   1.086       .  S
C750        C751   1.385       .  D
C751        C752   1.591       .  S
C752        C754   1.575       .  S
C752        H758   1.100       .  S
C753        H759   1.087       .  S
C753        C754   1.362       .  D
C754       C1090   1.541       .  S
C755        H760   1.081       .  S
C755        C756   1.333       .  D
C761        C762   1.468       .  A
C761        C766   1.400       .  A
C761       C1104   1.501   1_554  S
C762        C763   1.412       .  A
C762       C1082   1.541   1_554  S
C763        C764   1.400       .  A
C763        H768   1.085       .  S
C764        C765   1.412       .  A
C764        C839   1.489       .  S
C765        C766   1.391       .  A
C765        C829   1.478       .  S
C766        H767   1.081       .  S
C769        C770   1.532       .  S
C769        C775   1.465       .  S
C769        C773   1.537       .  S
C770        H777   1.087       .  S
C770        C771   1.368       .  D
C771        C772   1.582       .  S
C772        C776   1.583       .  S
C772        C774   1.575       .  S
C772        H778   1.108       .  S
C773        H779   1.087       .  S
C773        C774   1.364       .  D
C775        H780   1.064       .  S
C775        C776   1.322       .  D
C776       C1089   1.500       .  S
O781        V789   1.898       .  S
O782        V789   1.873       .  S
O782        C792   1.257       .  A
O783        V789   1.902       .  S
O783        C793   1.263       .  A
O784        V789   1.928       .  S
O785        V790   1.907       .  S
O785        C794   1.263       .  A
O786        V790   1.902       .  S
O787        V790   1.926       .  S
O788        V790   1.907       .  S
O788        C791   1.265       .  A
C791        C836   1.480       .  S
C792        C869   1.501       .  S
C793        C849   1.471       .  S
C794        C899   1.485       .  S
O795        V803   1.901       .  S
O795        C805   1.262       .  A
O796        V803   1.902       .  S
O796        C806   1.265       .  A
O797        V803   1.876       .  S
O797        C807   1.253       .  A
O798        V803   1.891       .  S
O798        C808   1.257       .  A
O799        V804   1.902       .  S
O799        C808   1.263       .  A
O800        V804   1.922       .  S
O800        C807   1.267       .  A
O801        V804   1.900       .  S
O801        C806   1.260       .  A
O802        V804   1.880       .  S
O802        C805   1.258       .  A
V803        V804   2.077       .  T
C805        C886   1.462       .  S
C806        C859   1.473       .  S
C807        C879   1.476       .  S
C808        C826   1.461       .  S
C809        C810   1.413       .  A
C809        C814   1.385       .  A
C809        C956   1.476       .  S
C810        C811   1.409       .  A
C810        C919   1.507       .  S
C811        C812   1.421       .  A
C811        H816   1.080       .  S
C812        C813   1.480       .  A
C813        C814   1.398       .  A
C814        H815   1.085       .  S
C817        C818   1.407       .  A
C817        C822   1.393       .  A
C817        C929   1.480       .  S
C818        C819   1.396       .  A
C818        C949   1.481       .  S
C819       C1148   1.415   1_554  A
C819        H824   1.085   1_565  S
C820       C1147   1.415       .  A
C820        C821   1.437       .  A
C821       C1150   1.408       .  A
C822       C1149   1.408       .  A
C822        H823   1.085       .  S
C825        C826   1.401       .  A
C825        C830   1.399       .  A
C825        H832   1.084       .  S
C826        C827   1.403       .  A
C827        C828   1.395       .  A
C827       Br834   1.916       .  S
C828        C829   1.402       .  A
C828        H833   1.084       .  S
C829        C830   1.409       .  A
C830       Br831   1.918       .  S
C835        C836   1.405       .  A
C835        C840   1.407       .  A
C836        C837   1.409       .  A
C837        C838   1.393       .  A
C837       Br844   1.907       .  S
C838        C839   1.398       .  A
C838        H843   1.083       .  S
C839        C840   1.412       .  A
C845        C846   1.403       .  A
C845        C850   1.392       .  A
C845        H852   1.084       .  S
C846        C847   1.414       .  A
C847        C848   1.404   1_565  A
C847       Br854   1.920   1_565  S
C848        C849   1.403   1_545  A
C848        H853   1.083       .  S
C849        C850   1.405       .  A
C850       Br851   1.916       .  S
C855        C856   1.403       .  A
C855        C860   1.402       .  A
C855        H862   1.083       .  S
C856        C857   1.411       .  A
C857        C858   1.395       .  A
C857       Br864   1.917       .  S
C858        C859   1.401       .  A
C858        H863   1.084       .  S
C859        C860   1.409       .  A
C860       Br861   1.909       .  S
C865        C866   1.425       .  A
C865        C870   1.400       .  A
C865        H872   1.077   1_565  S
C866        C867   1.502       .  A
C867        C868   1.442       .  A
C867       Br874   3.708       .  S
C868        C869   1.387       .  A
C868        H873   1.068       .  S
C869        C870   1.379       .  A
C875        C876   1.625       .  A
C875        C880   1.606       .  A
C875        H882   1.083       .  S
C876        C877   1.635       .  A
C877        C878   1.611       .  A
C877       Br884   1.910       .  S
C878        C879   1.615       .  A
C878        H883   1.082       .  S
C879        C880   1.616       .  A
C880       Br881   1.904       .  S
C885        C886   1.402       .  A
C885        C890   1.399       .  A
C885        H892   1.083       .  S
C886        C887   1.411       .  A
C887        C888   1.386       .  A
C887       Br894   1.917       .  S
C888        C889   1.393       .  A
C888        H893   1.083       .  S
C889        C890   1.408       .  A
C890       Br891   1.919       .  S
C895        C896   1.406       .  A
C895        C900   1.405       .  A
C895        H902   1.083       .  S
C896        C897   1.412       .  A
C897        C898   1.408       .  A
C897       Br904   1.918       .  S
C898        C899   1.404       .  A
C898        H903   1.083       .  S
C899        C900   1.407       .  A
C905        C906   1.407       .  A
C905        C910   1.404       .  A
C905        H912   1.083       .  S
C906        C907   1.406       .  A
C907        C908   1.394       .  A
C907       Br914   1.916       .  S
C908        C909   1.405       .  A
C908        H913   1.084       .  S
C909        C910   1.410       .  A
C910       Br911   1.916       .  S
C915        C916   1.407       .  A
C915        C920   1.411       .  A
C915        H922   1.083       .  S
C916        C917   1.408       .  A
C917        C918   1.398       .  A
C917       Br924   1.921       .  S
C918        C919   1.408       .  A
C918        H923   1.084       .  S
C919        C920   1.416       .  A
C920       Br921   1.918       .  S
C925        C926   1.401       .  A
C925        C930   1.396       .  A
C925        H932   1.084       .  S
C926        C927   1.406       .  A
C927        C928   1.400       .  A
C927       Br934   1.912       .  S
C928        C929   1.403       .  A
C928        H933   1.084       .  S
C929        C930   1.406       .  A
C930       Br931   1.915       .  S
C935        C936   1.404   1_545  A
C935        C940   1.406   1_545  A
C936        C937   1.407       .  A
C937        C938   1.393       .  A
C937       Br944   1.911   1_455  S
C938        C939   1.401       .  A
C938        H943   1.083       .  S
C939        C940   1.413       .  A
C945        C946   1.402       .  A
C945        C950   1.399       .  A
C946        C947   1.404       .  A
C947        C948   1.399   1_545  A
C947       Br954   1.914       .  S
C948        C949   1.404       .  A
C948        H953   1.083       .  S
C949        C950   1.406   1_565  A
C950       Br951   1.917       .  S
C955        C956   1.403       .  A
C955        C960   1.397       .  A
C955        H962   1.083       .  S
C956        C957   1.406       .  A
C957        C958   1.389       .  A
C957       Br964   1.917       .  S
C958        C959   1.399       .  A
C958        H963   1.084       .  S
C959        C960   1.408       .  A
C960       Br961   1.917       .  S
C965        C966   1.611       .  A
C965        C970   1.609       .  A
C965        H972   1.083       .  S
C966        C967   1.611       .  A
C967        C968   1.599       .  A
C967       Br974   1.918   1_455  S
C968        C969   1.621       .  A
C968        H973   1.083       .  S
C969        C970   1.635       .  A
C970       Br971   1.913       .  S
C975        C976   1.425       .  A
C975        C980   1.411       .  A
C975        H982   1.080       .  S
C976        C977   1.509       .  A
C977        C978   1.435       .  A
C977       Br984   3.713       .  S
C978        C979   1.381       .  A
C978        H983   1.075   1_455  S
C979        C980   1.383       .  A
C985        C986   1.378       .  A
C985        C990   1.358       .  A
C985       C1297   1.387       .  S
C986        C987   1.434       .  A
C986       C1304   1.552       .  S
C987        C988   1.444       .  A
C987        H992   1.081       .  S
C988        C989   1.452       .  A
C988       C1079   1.532       .  S
C989        C990   1.380       .  A
C989       C1097   1.514       .  S
C990        H991   1.088       .  S
O993       V1001   1.893       .  S
O994       V1001   1.863       .  S
O994       C1004   1.257       .  A
O995       V1001   1.910       .  S
O996       V1001   1.890       .  S
O996       C1006   1.262       .  A
O997       V1002   1.893       .  S
O998       V1002   1.894       .  S
O998       C1005   1.263       .  A
O999       V1002   1.944       .  S
O1000      V1002   1.916       .  S
O1000      C1003   1.268   1_565  A
C1003      C1274   1.470       .  S
C1004      C1307   1.499   1_655  S
C1005      C1264   1.476   1_655  S
C1006      C1287   1.458       .  S
O1007      V1015   1.908       .  S
O1007      C1017   1.263       .  A
O1008      V1015   1.905       .  S
O1008      C1018   1.265       .  A
O1009      V1015   1.899       .  S
O1009      C1019   1.260       .  A
O1010      V1015   1.885       .  S
O1010      C1020   1.256       .  A
O1011      V1016   1.898       .  S
O1011      C1020   1.260       .  A
O1012      V1016   1.897       .  S
O1012      C1019   1.263       .  A
O1013      V1016   1.909       .  S
O1013      C1018   1.263       .  A
O1014      V1016   1.892       .  S
O1014      C1017   1.264       .  A
V1015      V1016   2.083       .  T
C1017      C1237   1.478   1_655  S
C1018      C1244   1.485       .  S
C1019      C1254   1.467       .  S
C1020      C1294   1.462   1_655  S
C1021      C1022   1.419       .  A
C1021      C1026   1.400       .  A
C1021      C1267   1.493       .  S
C1022      C1023   1.399       .  A
C1022      C1234   1.486       .  S
C1023      H1028   1.085       .  S
C1024      C1025   1.438       .  A
C1024      C1099   1.504   1_554  S
C1025      C1084   1.498   1_554  S
C1026      H1027   1.080       .  S
C1029      C1054   1.571   1_556  S
C1029      C1035   1.524       .  S
C1029      C1033   1.551       .  S
C1030      H1037   1.086       .  S
C1031      C1149   1.493   1_556  S
C1031      C1032   1.566       .  S
C1032      C1036   1.588       .  S
C1032      C1034   1.517       .  S
C1032      H1038   1.109       .  S
C1033      H1039   1.087       .  S
C1033      C1034   1.373       .  D
C1034      C1062   1.488       .  S
C1035      H1040   1.078       .  S
C1035      C1036   1.350       .  D
C1036      C1140   1.539       .  S
C1041      C1141   1.559       .  S
C1041      C1042   1.544       .  S
C1041      C1047   1.514       .  S
C1041      C1045   1.544       .  S
C1042      H1049   1.087       .  S
C1043      C1148   1.502       .  S
C1043      C1044   1.534       .  S
C1044      C1046   1.571       .  S
C1044      H1050   1.109       .  S
C1046      C1061   1.501       .  S
C1047      H1052   1.078       .  S
C1047      C1048   1.345       .  D
C1048      C1053   1.525       .  S
C1053      C1054   1.481   1_556  A
C1055      C1056   1.390       .  A
C1055      H1060   1.083       .  S
C1056      C1057   1.408       .  A
C1056      C1217   1.469       .  S
C1057      C1058   1.400       .  A
C1057      C1224   1.498       .  S
C1058      H1059   1.082       .  S
C1061      C1062   1.434       .  A
C1061      C1066   1.425       .  A
C1062      C1063   1.394       .  A
C1063      C1064   1.383       .  A
C1063      H1068   1.086       .  S
C1064      C1065   1.383       .  A
C1064      C1204   1.404       .  S
C1065      C1066   1.420       .  A
C1065      C1194   1.542       .  S
C1066      H1067   1.079       .  S
C1069      C1070   1.414       .  A
C1069      C1074   1.392       .  A
C1069      C1174   1.490       .  S
C1070      C1071   1.399       .  A
C1070      C1184   1.489       .  S
C1071      C1072   1.411       .  A
C1071      H1076   1.085       .  S
C1072      C1073   1.460       .  A
C1072      C1102   1.526       .  S
C1073      C1074   1.407       .  A
C1073      C1077   1.533       .  S
C1074      H1075   1.084       .  S
C1077      C1083   1.487       .  S
C1078      H1085   1.086       .  S
C1078      C1079   1.385       .  D
C1079      C1080   1.591       .  S
C1080      C1082   1.575       .  S
C1080      H1086   1.100       .  S
C1081      H1087   1.087       .  S
C1081      C1082   1.362       .  D
C1083      H1088   1.081       .  S
C1083      C1084   1.333       .  D
C1089      C1090   1.468       .  A
C1089      C1094   1.400       .  A
C1090      C1091   1.412       .  A
C1091      C1092   1.400       .  A
C1091      H1096   1.085       .  S
C1092      C1093   1.412       .  A
C1092      C1167   1.489       .  S
C1093      C1094   1.391       .  A
C1093      C1157   1.478       .  S
C1094      H1095   1.081       .  S
C1097      C1098   1.532       .  S
C1097      C1103   1.465       .  S
C1097      C1101   1.537       .  S
C1098      H1105   1.087       .  S
C1098      C1099   1.368       .  D
C1099      C1100   1.582       .  S
C1100      C1104   1.583       .  S
C1100      C1102   1.575       .  S
C1100      H1106   1.108       .  S
C1101      H1107   1.087       .  S
C1101      C1102   1.364       .  D
C1103      H1108   1.067       .  S
C1103      C1104   1.321       .  D
O1109      V1117   1.898       .  S
O1110      V1117   1.873       .  S
O1110      C1120   1.257       .  A
O1111      V1117   1.902       .  S
O1111      C1121   1.263       .  A
O1112      V1117   1.927       .  S
O1113      V1118   1.907       .  S
O1113      C1122   1.263       .  A
O1114      V1118   1.902       .  S
O1115      V1118   1.926       .  S
O1116      V1118   1.907       .  S
O1116      C1119   1.265       .  A
C1119      C1164   1.480       .  S
C1120      C1197   1.501       .  S
C1121      C1177   1.471       .  S
C1122      C1227   1.485       .  S
O1123      V1131   1.901       .  S
O1123      C1133   1.262       .  A
O1124      V1131   1.902       .  S
O1124      C1134   1.265       .  A
O1125      V1131   1.876       .  S
O1125      C1135   1.253       .  A
O1126      V1131   1.891       .  S
O1126      C1136   1.257       .  A
O1127      V1132   1.902       .  S
O1127      C1136   1.263       .  A
O1128      V1132   1.922       .  S
O1128      C1135   1.267       .  A
O1129      V1132   1.900       .  S
O1129      C1134   1.260       .  A
O1130      V1132   1.880       .  S
O1130      C1133   1.258       .  A
V1131      V1132   2.077       .  T
C1133      C1214   1.462       .  S
C1134      C1187   1.473       .  S
C1135      C1207   1.476       .  S
C1136      C1154   1.461       .  S
C1137      C1138   1.413       .  A
C1137      C1142   1.385       .  A
C1137      C1284   1.476       .  S
C1138      C1139   1.409       .  A
C1138      C1247   1.507       .  S
C1139      C1140   1.421       .  A
C1139      H1144   1.080       .  S
C1140      C1141   1.480       .  A
C1141      C1142   1.398       .  A
C1142      H1143   1.085       .  S
C1145      C1146   1.407       .  A
C1145      C1150   1.393       .  A
C1145      C1257   1.480       .  S
C1146      C1147   1.396       .  A
C1146      C1277   1.481       .  S
C1147      H1152   1.085   1_565  S
C1148      C1149   1.437   1_556  A
C1150      H1151   1.085       .  S
C1153      C1154   1.401       .  A
C1153      C1158   1.399       .  A
C1153      H1160   1.084       .  S
C1154      C1155   1.403       .  A
C1155      C1156   1.395       .  A
C1155     Br1162   1.916       .  S
C1156      C1157   1.402       .  A
C1156      H1161   1.084       .  S
C1157      C1158   1.409       .  A
C1158     Br1159   1.918       .  S
C1163      C1164   1.405       .  A
C1163      C1168   1.407       .  A
C1164      C1165   1.409       .  A
C1165      C1166   1.393       .  A
C1165     Br1172   1.907       .  S
C1166      C1167   1.398       .  A
C1166      H1171   1.083       .  S
C1167      C1168   1.412       .  A
C1173      C1174   1.403       .  A
C1173      C1178   1.392       .  A
C1173      H1180   1.084       .  S
C1174      C1175   1.414       .  A
C1175      C1176   1.404   1_565  A
C1175     Br1182   1.920   1_565  S
C1176      C1177   1.403   1_545  A
C1176      H1181   1.083       .  S
C1177      C1178   1.405       .  A
C1178     Br1179   1.916       .  S
C1183      C1184   1.403       .  A
C1183      C1188   1.402       .  A
C1183      H1190   1.083       .  S
C1184      C1185   1.411       .  A
C1185      C1186   1.395       .  A
C1185     Br1192   1.917       .  S
C1186      C1187   1.401       .  A
C1186      H1191   1.084       .  S
C1187      C1188   1.409       .  A
C1188     Br1189   1.909       .  S
C1193      C1194   1.425       .  A
C1193      C1198   1.400       .  A
C1193      H1200   1.077   1_565  S
C1194      C1195   1.502       .  A
C1195      C1196   1.442       .  A
C1195     Br1202   3.708       .  S
C1196      C1197   1.387       .  A
C1196      H1201   1.068       .  S
C1197      C1198   1.379       .  A
C1203      C1204   1.625       .  A
C1203      C1208   1.606       .  A
C1203      H1210   1.083       .  S
C1204      C1205   1.635       .  A
C1205      C1206   1.611       .  A
C1205     Br1212   1.910       .  S
C1206      C1207   1.615       .  A
C1206      H1211   1.082       .  S
C1207      C1208   1.616       .  A
C1208     Br1209   1.904       .  S
C1213      C1214   1.402       .  A
C1213      C1218   1.399       .  A
C1213      H1220   1.083       .  S
C1214      C1215   1.411       .  A
C1215      C1216   1.386       .  A
C1215     Br1222   1.917       .  S
C1216      C1217   1.393       .  A
C1216      H1221   1.083       .  S
C1217      C1218   1.408       .  A
C1218     Br1219   1.919       .  S
C1223      C1224   1.406       .  A
C1223      C1228   1.405       .  A
C1223      H1230   1.083       .  S
C1224      C1225   1.412       .  A
C1225      C1226   1.408       .  A
C1225     Br1232   1.918       .  S
C1226      C1227   1.404       .  A
C1226      H1231   1.083       .  S
C1227      C1228   1.407       .  A
C1233      C1234   1.407       .  A
C1233      C1238   1.404       .  A
C1233      H1240   1.083       .  S
C1234      C1235   1.406       .  A
C1235      C1236   1.394       .  A
C1235     Br1242   1.916       .  S
C1236      C1237   1.405       .  A
C1236      H1241   1.084       .  S
C1237      C1238   1.410       .  A
C1238     Br1239   1.916       .  S
C1243      C1244   1.407       .  A
C1243      C1248   1.411       .  A
C1243      H1250   1.083       .  S
C1244      C1245   1.408       .  A
C1245      C1246   1.398       .  A
C1245     Br1252   1.921       .  S
C1246      C1247   1.408       .  A
C1246      H1251   1.084       .  S
C1247      C1248   1.416       .  A
C1248     Br1249   1.918       .  S
C1253      C1254   1.401       .  A
C1253      C1258   1.396       .  A
C1253      H1260   1.084       .  S
C1254      C1255   1.406       .  A
C1255      C1256   1.400       .  A
C1255     Br1262   1.912       .  S
C1256      C1257   1.403       .  A
C1256      H1261   1.083       .  S
C1257      C1258   1.406       .  A
C1258     Br1259   1.915       .  S
C1263      C1264   1.404   1_545  A
C1263      C1268   1.406   1_545  A
C1264      C1265   1.407       .  A
C1265      C1266   1.393       .  A
C1265     Br1272   1.911   1_455  S
C1266      C1267   1.401       .  A
C1266      H1271   1.083       .  S
C1267      C1268   1.413       .  A
C1273      C1274   1.402       .  A
C1273      C1278   1.399       .  A
C1274      C1275   1.404       .  A
C1275      C1276   1.399   1_545  A
C1275     Br1282   1.914       .  S
C1276      C1277   1.404       .  A
C1276      H1281   1.083       .  S
C1277      C1278   1.406   1_565  A
C1278     Br1279   1.917       .  S
C1283      C1284   1.403       .  A
C1283      C1288   1.397       .  A
C1283      H1290   1.083       .  S
C1284      C1285   1.406       .  A
C1285      C1286   1.389       .  A
C1285     Br1292   1.917       .  S
C1286      C1287   1.399       .  A
C1286      H1291   1.084       .  S
C1287      C1288   1.408       .  A
C1288     Br1289   1.917       .  S
C1293      C1294   1.611       .  A
C1293      C1298   1.609       .  A
C1293      H1300   1.082       .  S
C1294      C1295   1.611       .  A
C1295      C1296   1.599       .  A
C1295     Br1302   1.918   1_455  S
C1296      C1297   1.621       .  A
C1296      H1301   1.083       .  S
C1297      C1298   1.635       .  A
C1298     Br1299   1.913       .  S
C1303      C1304   1.425       .  A
C1303      C1308   1.411       .  A
C1303      H1310   1.080       .  S
C1304      C1305   1.509       .  A
C1305      C1306   1.435       .  A
C1305     Br1312   3.713       .  S
C1306      C1307   1.381       .  A
C1306      H1311   1.075   1_455  S
C1307      C1308   1.383       .  A
