geometry optimzed in LAMMPS
_audit_creation_date              2020-12-01 
_audit_creation_method            'lammps2cif' 
_symmetry_space_group_name_H-M    'P1' 
_symmetry_Int_Tables_number       1 
_symmetry_cell_setting            triclinic 
loop_ 
_symmetry_equiv_pos_as_xyz 
  x,y,z 
_cell_length_a                    41.39705317 
_cell_length_b                    41.567184276691826 
_cell_length_c                    41.42737995491151 
_cell_angle_alpha                 90.0129395375621 
_cell_angle_beta                  89.95116183046729 
_cell_angle_gamma                 89.93797432507705 
loop_ 
_atom_site_label 
_atom_site_type_symbol 
_atom_site_fract_x 
_atom_site_fract_y 
_atom_site_fract_z 
_atom_site_charge 
N1          N  0.99881020  0.22023339  0.54908627    -0.36700
N2          N  0.95459042  0.22892232  0.49541927    -0.57200
N3          N  0.00987237  0.24057584  0.45353186    -0.36700
N4          N  0.05440366  0.22837802  0.50691534    -0.57200
C5          C  0.97047533  0.21314775  0.56364509     0.26900
C6          C  0.02276143  0.21130595  0.56938115     0.26900
C7          C  0.98618900  0.23579053  0.43144736     0.26900
C8          C  0.03850294  0.23773026  0.43794151     0.26900
C9          C  0.93316781  0.23113453  0.51998782     0.35500
C10         C  0.93898213  0.23871000  0.46849369     0.35500
C11         C  0.06939573  0.22935433  0.53590304     0.35500
C12         C  0.07512258  0.24138393  0.48530096     0.35500
C13         C  0.97646709  0.19916252  0.59345401    -0.21900
C14         C  0.00948191  0.19787775  0.59701850    -0.21900
C15         C  0.99994125  0.22993109  0.40150552    -0.21900
C16         C  0.03291984  0.23108918  0.40560224    -0.21900
C17         C  0.90363994  0.24194980  0.50851735    -0.23000
C18         C  0.90726663  0.24653304  0.47581919    -0.23000
C19         C  0.10000870  0.24242072  0.53255928    -0.23000
C20         C  0.10350555  0.25033842  0.50057090    -0.23000
C21         C  0.93955452  0.22225627  0.55235750    -0.18300
C22         C  0.05587400  0.21865569  0.56539906    -0.18300
C23         C  0.06939065  0.24335214  0.45167923    -0.18300
C24         C  0.95257055  0.23887897  0.43715956    -0.18300
H25         H  0.95886623  0.19161628  0.61123741     0.14600
H26         H  0.02223110  0.18926077  0.61812587     0.14600
H27         H  0.98750583  0.22567421  0.37893735     0.14600
H28         H  0.05077009  0.22774151  0.38679352     0.14600
H29         H  0.88169474  0.24579556  0.52221031     0.12800
H30         H  0.88873666  0.25475000  0.45934103     0.12800
H31         H  0.11778775  0.24634200  0.55128835     0.12800
H32         H  0.12459482  0.26134097  0.48979741     0.12800
H33         H  0.00146043  0.23474461  0.52891210     0.26100
H34         H  0.00678098  0.24922300  0.47684111     0.26100
O35         O  0.24982714  0.27045373  0.19276935    -0.88400
C36         C  0.32757144  0.25771922  0.25254230     0.87600
Mg37       Mg  0.20943275  0.30157619  0.20342525     1.58100
O38         O  0.27215392  0.19324017  0.24952736    -0.88100
O39         O  0.26016777  0.22088018  0.17853105    -0.75500
C40         C  0.16659186  0.26436026  0.35302623     0.92700
O41         O  0.28060640  0.32191661  0.24155805    -0.75300
O42         O  0.16642465  0.28855038  0.33414636    -0.82800
Mg43       Mg  0.29730687  0.29126212  0.19853064     1.58000
C44         C  0.24218846  0.15495537  0.33879099     0.92600
O45         O  0.31999623  0.26616794  0.15472502    -0.81000
H46         H  0.24730953  0.16024139  0.22475382    -0.06400
C47         C  0.25892610  0.25779792  0.32435586     0.87500
O48         O  0.17869944  0.25942070  0.22129026    -0.75600
O49         O  0.30998196  0.25159841  0.22933286    -0.88300
O50         O  0.26739381  0.15871327  0.32153252    -0.81100
C51         C  0.35303740  0.16446554  0.26083637     0.92700
C52         C  0.33692553  0.24136612  0.14827366     0.92600
Mg53       Mg  0.20527536  0.21391673  0.30279200     1.58000
O54         O  0.18392306  0.23968004  0.34708638    -0.81000
O55         O  0.22122016  0.18277331  0.25958064    -0.75300
O56         O  0.34735401  0.17972451  0.23465064    -0.81100
O57         O  0.28446234  0.33286400  0.16522682    -0.82800
O58         O  0.15460950  0.32340752  0.26562278    -0.81200
C59         C  0.24722406  0.17783196  0.24398158     0.87000
O60         O  0.19236865  0.25272440  0.27164151    -0.88300
O61         O  0.25305630  0.23384418  0.30771154    -0.88400
O62         O  0.24285625  0.28369324  0.32130812    -0.75500
Mg63       Mg  0.30341614  0.20402468  0.20913722     1.58000
O64         O  0.33457430  0.16756843  0.28530110    -0.82800
H65         H  0.22513036  0.24817763  0.15787625    -0.06600
O66         O  0.22972519  0.31070121  0.25072047    -0.88100
H67         H  0.25351722  0.34431142  0.27565770    -0.06400
H68         H  0.15735277  0.22691893  0.25092984    -0.06600
C69         C  0.25424143  0.32662124  0.25653367     0.87000
C70         C  0.24433458  0.24687870  0.17550042     0.87600
C71         C  0.17511371  0.24580293  0.24841085     0.87600
H72         H  0.27855281  0.25688094  0.34153416    -0.06500
O73         O  0.32423015  0.24329484  0.27928869    -0.75600
Mg74       Mg  0.19895990  0.30029541  0.29119071     1.58000
H75         H  0.34558280  0.27640049  0.25030583    -0.06600
C76         C  0.25935794  0.35041621  0.16283910     0.92600
O77         O  0.16707069  0.33451537  0.21458281    -0.82800
C78         C  0.14870924  0.33787152  0.23904912     0.92700
O79         O  0.33645494  0.21661153  0.16650512    -0.82800
Mg80       Mg  0.29275449  0.20145887  0.29691832     1.58200
O81         O  0.23389010  0.34424135  0.17886589    -0.81100
O82         O  0.21805280  0.17365257  0.33645971    -0.82800
O83         O  0.76142551  0.25157580  0.68530873    -0.88400
C84         C  0.75057509  0.17608511  0.74884028     0.87600
Mg85       Mg  0.79582897  0.28985844  0.69197227     1.58100
O86         O  0.68755119  0.23348536  0.75203524    -0.88100
O87         O  0.70951019  0.24358119  0.67848639    -0.75500
C88         C  0.77248155  0.33627905  0.84241641     0.92700
O89         O  0.81597055  0.21859110  0.72994079    -0.75300
O90         O  0.79423184  0.33622127  0.82076841    -0.82800
Mg91       Mg  0.77977510  0.20350314  0.69088924     1.58000
C92         C  0.66011155  0.26696104  0.84388480     0.92600
O93         O  0.74834180  0.18370983  0.65025240    -0.81000
H94         H  0.65160848  0.25792388  0.73106829    -0.06400
C95         C  0.76051379  0.24435396  0.81800460     0.87500
O96         O  0.75608344  0.32244863  0.71291702    -0.75600
O97         O  0.74303402  0.19424332  0.72656078    -0.88300
O98         O  0.66202948  0.24101365  0.82753336    -0.81100
C99         C  0.65879135  0.15352650  0.76839042     0.92700
C100        C  0.72381070  0.16529204  0.64884760     0.92600
Mg101      Mg  0.71628674  0.29913275  0.80001550     1.58000
O102        O  0.74821228  0.31768366  0.84061059    -0.81000
O103        O  0.67899557  0.28457819  0.76163054    -0.75300
O104        O  0.67163532  0.15913614  0.74087994    -0.81100
O105        O  0.81909018  0.21230742  0.65346637    -0.82800
O106        O  0.82087277  0.34444729  0.75031675    -0.81200
C107        C  0.67166802  0.25832522  0.74775615     0.87000
O108        O  0.75184662  0.30865731  0.76361167    -0.88300
O109        O  0.73493208  0.25094268  0.80411440    -0.88400
O110        O  0.78660819  0.25916279  0.81165187    -0.75500
Mg111      Mg  0.69385513  0.20155521  0.71162699     1.58000
O112        O  0.66362350  0.17222616  0.79231237    -0.82800
H113        H  0.73531823  0.27700972  0.65371138    -0.06600
O114        O  0.80724735  0.26976762  0.73866070    -0.88100
H115        H  0.84276635  0.24565307  0.76063233    -0.06400
H116        H  0.72545921  0.34416426  0.74444810    -0.06600
C117        C  0.82305996  0.24502187  0.74354137     0.87000
C118        C  0.73569592  0.25806966  0.67159547     0.87600
C119        C  0.74381794  0.32600645  0.74078401     0.87600
H120        H  0.76082015  0.22514275  0.83558734    -0.06500
O121        O  0.73867351  0.17953096  0.77682377    -0.75600
Mg122      Mg  0.80094068  0.30160854  0.77879462     1.58000
H123        H  0.76818567  0.15732999  0.74459616    -0.06600
C124        C  0.83889684  0.23539374  0.64952326     0.92600
O125        O  0.83188293  0.33091298  0.69963128    -0.82800
C126        C  0.83512248  0.34986989  0.72362046     0.92700
O127        O  0.70144521  0.16658261  0.66989633    -0.82800
Mg128      Mg  0.70021537  0.21296032  0.79856845     1.58200
O129        O  0.83573953  0.26174663  0.66500251    -0.81100
O130        O  0.67918216  0.29027072  0.83879261    -0.82800
N131        N  0.50960422  0.04823092  0.26543164    -0.36700
N132        N  0.45457819  0.00535531  0.27246014    -0.57200
N133        N  0.49896924  0.95076080  0.27529188    -0.36700
N134        N  0.55409626  0.99352430  0.27198365    -0.57200
C135        C  0.48582992  0.07017018  0.27065858     0.26900
C136        C  0.53832096  0.06365738  0.26794409     0.26900
C137        C  0.47058807  0.93612929  0.28191591     0.26900
C138        C  0.52286566  0.93028552  0.28412643     0.26900
C139        C  0.43845074  0.03310894  0.26675489     0.35500
C140        C  0.43298142  0.98120421  0.26886079     0.35500
C141        C  0.57500915  0.01622181  0.26152922     0.35500
C142        C  0.56942823  0.96486831  0.26910640     0.35500
C143        C  0.49969520  0.09998202  0.27639303    -0.21900
C144        C  0.53274892  0.09589678  0.27462462    -0.21900
C145        C  0.47646939  0.90596390  0.29497591    -0.21900
C146        C  0.50944059  0.90240683  0.29665528    -0.21900
C147        C  0.40625552  0.02655688  0.26027463    -0.23000
C148        C  0.40284642  0.99368207  0.26141154    -0.23000
C149        C  0.60386070  0.00191799  0.25226728    -0.23000
C150        C  0.60032479  0.96940399  0.25709326    -0.23000
C151        C  0.45201765  0.06438305  0.26850704    -0.18300
C152        C  0.56924769  0.04983001  0.26222906    -0.18300
C153        C  0.55625923  0.93480828  0.27830788    -0.18300
C154        C  0.43961362  0.94821080  0.27415623    -0.18300
H155        H  0.48728338  0.12246549  0.28093128     0.14600
H156        H  0.55064351  0.11463288  0.27758402     0.14600
H157        H  0.45885961  0.88814441  0.30221243     0.14600
H158        H  0.52207106  0.88129280  0.30529963     0.14600
H159        H  0.38719996  0.04366281  0.25517624     0.12800
H160        H  0.38062492  0.98051148  0.25765350     0.12800
H161        H  0.62533903  0.01371888  0.24324461     0.12800
H162        H  0.61843017  0.95119338  0.25236850     0.12800
H163        H  0.50654395  0.02501234  0.25698467     0.26100
H164        H  0.50161302  0.97140990  0.26154938     0.26100
O165        O  0.72666705  0.80260145  0.25819713    -0.88400
C166        C  0.74621549  0.73525981  0.32601214     0.87600
Mg167      Mg  0.69265498  0.79442719  0.21977550     1.58100
O168        O  0.80663909  0.74762124  0.26740646    -0.88100
O169        O  0.77644576  0.81811080  0.26572029    -0.75500
C170        C  0.73634248  0.65414723  0.15310168     0.92700
O171        O  0.67997732  0.74852220  0.28586438    -0.75300
O172        O  0.71070250  0.67105064  0.15642512    -0.82800
Mg173      Mg  0.70982859  0.79120921  0.30586030     1.58000
C174        C  0.84966184  0.66655908  0.22503260     0.92600
O175        O  0.73562935  0.83311531  0.33138721    -0.81000
H176        H  0.83868035  0.77618777  0.24552786    -0.06400
C177        C  0.74680174  0.67027056  0.24666219     0.87500
O178        O  0.73382421  0.78372940  0.18416493    -0.75600
O179        O  0.75117552  0.76116815  0.31233041    -0.88300
O180        O  0.84377197  0.67920826  0.25236701    -0.81100
C181        C  0.84139668  0.72763045  0.34298140     0.92700
C182        C  0.76171099  0.84018748  0.34605689     0.92600
Mg183      Mg  0.78676055  0.70257396  0.19514458     1.58000
O184        O  0.76198995  0.66096320  0.16862976    -0.81000
O185        O  0.81664342  0.74443810  0.21558898    -0.75300
O186        O  0.82589896  0.75424108  0.34186795    -0.81100
O187        O  0.66677298  0.82454127  0.29952043    -0.82800
O188        O  0.67172570  0.73955072  0.15814535    -0.81200
C189        C  0.82159047  0.75667644  0.24323820     0.87000
O190        O  0.74512518  0.73256100  0.18902407    -0.88300
O191        O  0.76851954  0.69013340  0.24243346    -0.88400
O192        O  0.71955154  0.67336551  0.23305051    -0.75500
Mg193      Mg  0.79759565  0.78382773  0.30378723     1.58000
O194        O  0.83637528  0.70545237  0.32253241    -0.82800
H195        H  0.74523589  0.84083324  0.23558133    -0.06600
O196        O  0.68893253  0.74436115  0.23379384    -0.88100
H197        H  0.65852498  0.71514959  0.25718514    -0.06400
H198        H  0.76717854  0.76066174  0.15667030    -0.06600
C199        C  0.67501291  0.73525305  0.25860394     0.87000
C200        C  0.74897120  0.82147117  0.25259839     0.87600
C201        C  0.74926128  0.75874965  0.17556990     0.87600
H202        H  0.75084590  0.65023629  0.26280584    -0.06500
O203        O  0.76024231  0.70960633  0.31713564    -0.75600
Mg204      Mg  0.69897903  0.70907386  0.19603501     1.58000
H205        H  0.72843363  0.73416622  0.34511047    -0.06600
C206        C  0.64627206  0.82744274  0.27685810     0.92600
O207        O  0.65708697  0.78651007  0.17930618    -0.82800
C208        C  0.65455588  0.76508122  0.15754864     0.92700
O209        O  0.78722679  0.82329151  0.34196706    -0.82800
Mg210      Mg  0.80125907  0.69785934  0.28190920     1.58200
O211        O  0.64946106  0.81193090  0.25049473    -0.81100
O212        O  0.83058582  0.67009453  0.20123342    -0.82800
N213        N  0.94959333  0.72272860  0.49652257    -0.36700
N214        N  0.00195744  0.71649374  0.45010731    -0.57200
N215        N  0.04742609  0.72878681  0.50263330    -0.36700
N216        N  0.99478299  0.73111167  0.54915544    -0.57200
C217        C  0.93343860  0.71284363  0.47005197     0.26900
C218        C  0.92967665  0.71851695  0.52202942     0.26900
C219        C  0.06805067  0.72029727  0.47871514     0.26900
C220        C  0.06421193  0.72848467  0.53068961     0.26900
C221        C  0.97693170  0.71964981  0.42933730     0.35500
C222        C  0.02917188  0.72104498  0.43263690     0.35500
C223        C  0.96691641  0.73709114  0.56514911     0.35500
C224        C  0.01897825  0.74159959  0.56832398     0.35500
C225        C  0.90297223  0.70205162  0.47879422    -0.21900
C226        C  0.90061791  0.70556391  0.51166173    -0.21900
C227        C  0.09837353  0.71451781  0.49173548    -0.21900
C228        C  0.09594098  0.71962298  0.52450843    -0.21900
C229        C  0.98829975  0.72536587  0.39841547    -0.23000
C230        C  0.02139949  0.72614085  0.40047269    -0.23000
C231        C  0.97340573  0.75088998  0.59486039    -0.23000
C232        C  0.00637959  0.75391000  0.59681992    -0.23000
C233        C  0.94398775  0.71690851  0.43793983    -0.18300
C234        C  0.93577836  0.72904995  0.55379813    -0.18300
C235        C  0.05233008  0.73866906  0.56120871    -0.18300
C236        C  0.06097298  0.72039295  0.44521552    -0.18300
H237        H  0.88407240  0.69342482  0.46297198     0.14600
H238        H  0.87951342  0.70020471  0.52612631     0.14600
H239        H  0.12016413  0.70791953  0.47886109     0.14600
H240        H  0.11550446  0.71772768  0.54172202     0.14600
H241        H  0.97426696  0.72888519  0.37667581     0.12800
H242        H  0.03781240  0.73050072  0.38060663     0.12800
H243        H  0.95618347  0.75810996  0.61315649     0.12800
H244        H  0.01953046  0.76395220  0.61700431     0.12800
H245        H  0.97079692  0.73609141  0.49639455     0.26100
H246        H  0.02451335  0.73838674  0.49941554     0.26100
O247        O  0.30264272  0.77363874  0.75352812    -0.88400
C248        C  0.23930008  0.75530250  0.82624571     0.87600
Mg249      Mg  0.29150145  0.80638148  0.71449429     1.58100
O250        O  0.25010213  0.69285764  0.76955706    -0.88100
O251        O  0.32002935  0.72490913  0.76300434    -0.75500
C252        C  0.14770770  0.75915128  0.66181751     0.92700
O253        O  0.24994155  0.82102098  0.78417010    -0.75300
O254        O  0.16410052  0.78507080  0.66378115    -0.82800
Mg255      Mg  0.29407461  0.79183702  0.80121284     1.58000
C256        C  0.16600626  0.64854876  0.73305956     0.92600
O257        O  0.33870243  0.76780432  0.82359626    -0.81000
H258        H  0.27928321  0.66263689  0.74583388    -0.06400
C259        C  0.17088727  0.75079858  0.75384287     0.87500
O260        O  0.27889691  0.76451766  0.68087661    -0.75600
O261        O  0.26435620  0.75088402  0.81070036    -0.88300
O262        O  0.18085746  0.65325029  0.75956981    -0.81100
C263        C  0.23447559  0.66280370  0.84873965     0.92700
C264        C  0.34500434  0.74316696  0.84076787     0.92600
Mg265      Mg  0.20017378  0.71114492  0.70036920     1.58000
O266        O  0.15567956  0.73406842  0.67749269    -0.81000
O267        O  0.24465557  0.68303311  0.71787560    -0.75300
O268        O  0.25986291  0.67982968  0.84492925    -0.81100
O269        O  0.32666999  0.83385104  0.79096403    -0.82800
O270        O  0.23074073  0.82495296  0.65841538    -0.81200
C271        C  0.25867912  0.67860861  0.74477800     0.87000
O272        O  0.22853619  0.75294429  0.69127825    -0.88300
O273        O  0.19042465  0.72912220  0.74802688    -0.88400
O274        O  0.17269744  0.77788714  0.73989246    -0.75500
Mg275      Mg  0.28746810  0.70504084  0.80366599     1.58000
O276        O  0.21136647  0.66369336  0.82860264    -0.82800
H277        H  0.34060285  0.75493785  0.73020951    -0.06600
O278        O  0.24258340  0.81012181  0.73295020    -0.88100
H279        H  0.21478399  0.84147311  0.75686661    -0.06400
H280        H  0.25337975  0.73084909  0.65630700    -0.06600
C281        C  0.23503075  0.82504654  0.75765894     0.87000
C282        C  0.32196565  0.75160624  0.74819551     0.87600
C283        C  0.25325176  0.74891274  0.67508581     0.87600
H284        H  0.15236279  0.74688779  0.77182517    -0.06500
O285        O  0.21380414  0.73945097  0.82035277    -0.75600
Mg286      Mg  0.20449616  0.79839098  0.69938321     1.58000
H287        H  0.23880237  0.77373617  0.84465283    -0.06600
C288        C  0.32827706  0.85344085  0.76750346     0.92600
O289        O  0.28006845  0.84030067  0.67267784    -0.82800
C290        C  0.25611875  0.84155584  0.65338946     0.92700
O291        O  0.32715677  0.71823117  0.83973438    -0.82800
Mg292      Mg  0.20087218  0.69711193  0.78714239     1.58200
O293        O  0.31033843  0.85024684  0.74273748    -0.81100
O294        O  0.16904357  0.66773764  0.70940841    -0.82800
N295        N  0.49368710  0.95009922  0.76470101    -0.36700
N296        N  0.44808346  0.00102288  0.77523227    -0.57200
N297        N  0.50079905  0.04780476  0.77966948    -0.36700
N298        N  0.54671335  0.99670641  0.76681383    -0.57200
C299        C  0.46571749  0.93455785  0.75807651     0.26900
C300        C  0.51801273  0.93261839  0.75173388     0.26900
C301        C  0.47520610  0.06755815  0.77460465     0.26900
C302        C  0.52798260  0.06501816  0.77374232     0.26900
C303        C  0.42750197  0.97598630  0.77799790     0.35500
C304        C  0.43102317  0.02759043  0.78288925     0.35500
C305        C  0.56351423  0.96875958  0.76703223     0.35500
C306        C  0.56744777  0.02007444  0.77624485     0.35500
C307        C  0.47229842  0.90671976  0.74089985    -0.21900
C308        C  0.50528475  0.90564015  0.73661026    -0.21900
C309        C  0.48629011  0.09781866  0.76595856    -0.21900
C310        C  0.51955243  0.09624278  0.76547658    -0.21900
C311        C  0.39725106  0.98665402  0.78756792    -0.23000
C312        C  0.39942964  0.01939632  0.79048572    -0.23000
C313        C  0.59504026  0.97439547  0.77680433    -0.23000
C314        C  0.59754130  0.00690021  0.78256577    -0.23000
C315        C  0.43466088  0.94422166  0.76852259    -0.18300
C316        C  0.55144602  0.93878582  0.75594091    -0.18300
C317        C  0.56016083  0.05340848  0.77643504    -0.18300
C318        C  0.44218472  0.05934131  0.77866895    -0.18300
H319        H  0.45515519  0.88900706  0.73239363     0.14600
H320        H  0.51845769  0.88674924  0.72432526     0.14600
H321        H  0.47190221  0.11889991  0.76059402     0.14600
H322        H  0.53566937  0.11583114  0.75946244     0.14600
H323        H  0.37552351  0.97253939  0.79075868     0.12800
H324        H  0.37969421  0.03544174  0.79642970     0.12800
H325        H  0.61437271  0.95699495  0.77904875     0.12800
H326        H  0.61914265  0.01946410  0.79010540     0.12800
H327        H  0.49640209  0.96926736  0.78059672     0.26100
H328        H  0.49991788  0.02477139  0.78934956     0.26100
N329        N  0.24962035  0.55330383  0.00331054    -0.36700
N330        N  0.25586510  0.50419271  0.05180680    -0.57200
N331        N  0.24336399  0.45511669  0.00305305    -0.36700
N332        N  0.23409906  0.50414389  0.95421235    -0.57200
C333        C  0.25005151  0.57182838  0.03020145     0.26900
C334        C  0.23844888  0.57175225  0.97892375     0.26900
C335        C  0.24069455  0.43739926  0.03036876     0.26900
C336        C  0.23154189  0.43722962  0.97840007     0.26900
C337        C  0.26624802  0.52955692  0.06932358     0.35500
C338        C  0.26205721  0.47772811  0.06959043     0.35500
C339        C  0.23928402  0.53026047  0.93538125     0.35500
C340        C  0.23744314  0.47795342  0.93495312     0.35500
C341        C  0.23934987  0.60254587  0.02271778    -0.21900
C342        C  0.23202838  0.60250974  0.99033631    -0.21900
C343        C  0.22696945  0.40788103  0.02299912    -0.21900
C344        C  0.22122177  0.40776273  0.99022416    -0.21900
C345        C  0.27899133  0.51920494  0.09843323    -0.23000
C346        C  0.27633780  0.48633248  0.09861758    -0.23000
C347        C  0.24544515  0.52068502  0.90392827    -0.23000
C348        C  0.24469238  0.48756243  0.90374175    -0.23000
C349        C  0.26097625  0.56203226  0.06100578    -0.18300
C350        C  0.23769169  0.56265032  0.94604293    -0.18300
C351        C  0.23300488  0.44563381  0.94519860    -0.18300
C352        C  0.25264779  0.44618638  0.06121484    -0.18300
H353        H  0.23741416  0.62299022  0.03879403     0.14600
H354        H  0.22365813  0.62302783  0.97658665     0.14600
H355        H  0.22227243  0.38816964  0.03940718     0.14600
H356        H  0.21123342  0.38795869  0.97652542     0.14600
H357        H  0.28845235  0.53386888  0.11783300     0.12800
H358        H  0.28350393  0.47063218  0.11818629     0.12800
H359        H  0.25043768  0.53596787  0.88337461     0.12800
H360        H  0.24887454  0.47231495  0.88297334     0.12800
H361        H  0.25998464  0.53071216  0.00071864     0.26100
H362        H  0.25641738  0.47623380  0.00064273     0.26100
N363        N  0.76331824  0.44593594  0.99719666    -0.36700
N364        N  0.75951386  0.49489427  0.94721675    -0.57200
N365        N  0.74881893  0.54360270  0.99680225    -0.36700
N366        N  0.75629109  0.49468369  0.04706286    -0.57200
C367        C  0.77195374  0.42839532  0.97114544     0.26900
C368        C  0.77050088  0.42824260  0.02358145     0.26900
C369        C  0.75455063  0.56246077  0.97068560     0.26900
C370        C  0.75191362  0.56229714  0.02344893     0.26900
C371        C  0.75892615  0.46841153  0.92825240     0.35500
C372        C  0.75249606  0.52018135  0.92794079     0.35500
C373        C  0.75413952  0.46794240  0.06563807     0.35500
C374        C  0.74654824  0.51969366  0.06562428     0.35500
C375        C  0.78466984  0.39912836  0.98106645    -0.21900
C376        C  0.78374409  0.39902629  0.01416985    -0.21900
C377        C  0.76112722  0.59353619  0.98088605    -0.21900
C378        C  0.75953683  0.59342432  0.01408798    -0.21900
C379        C  0.75192856  0.47692720  0.89669190    -0.23000
C380        C  0.74785285  0.50972290  0.89648252    -0.23000
C381        C  0.74355582  0.47604674  0.09629532    -0.23000
C382        C  0.73860697  0.50875459  0.09625958    -0.23000
C383        C  0.76631473  0.43686703  0.93866105    -0.18300
C384        C  0.76277131  0.43646742  0.05572385    -0.18300
C385        C  0.74653949  0.55247865  0.05589943    -0.18300
C386        C  0.75271735  0.55281073  0.93782865    -0.18300
H387        H  0.79314287  0.37957084  0.96600948     0.14600
H388        H  0.79135026  0.37935816  0.02950572     0.14600
H389        H  0.76650563  0.61420911  0.96594836     0.14600
H390        H  0.76347358  0.61401700  0.02957563     0.14600
H391        H  0.75030278  0.46120705  0.87592366     0.12800
H392        H  0.74246645  0.52423001  0.87547231     0.12800
H393        H  0.73980759  0.46007144  0.11658288     0.12800
H394        H  0.73020298  0.52284914  0.11656348     0.12800
H395        H  0.74941153  0.46677674  0.99685716     0.26100
H396        H  0.73985599  0.52022919  0.99636043     0.26100
O397        O  0.71755470  0.79810367  0.77410657    -0.88400
C398        C  0.69739023  0.70153969  0.76894186     0.87600
Mg399      Mg  0.72536523  0.82684253  0.73157294     1.58100
O400        O  0.77609979  0.71953046  0.79645296    -0.88100
O401        O  0.74138621  0.78401062  0.81907707    -0.75500
C402        C  0.83179200  0.74165489  0.64631690     0.92700
O403        O  0.67841606  0.76053389  0.71836219    -0.75300
O404        O  0.80900573  0.76188690  0.64210718    -0.82800
Mg405      Mg  0.67498320  0.76826317  0.77328088     1.58000
C406        C  0.85285047  0.66746656  0.75473724     0.92600
O407        O  0.66279946  0.77504396  0.82702447    -0.81000
H408        H  0.80550675  0.74149549  0.82768414    -0.06400
C409        C  0.76693676  0.69801165  0.70055638     0.87500
O410        O  0.78053463  0.82276784  0.73726221    -0.75600
O411        O  0.70483077  0.72678132  0.78271278    -0.88300
O412        O  0.82745072  0.66271327  0.77146364    -0.81100
C413        C  0.74653179  0.64987852  0.83642455     0.92700
C414        C  0.66637406  0.75846641  0.85262882     0.92600
Mg415      Mg  0.82425648  0.73542682  0.72648717     1.58000
O416        O  0.83604505  0.72770346  0.67328960    -0.81000
O417        O  0.82016968  0.74405779  0.78101593    -0.75300
O418        O  0.72998880  0.67550278  0.84067848    -0.81100
O419        O  0.64394224  0.81173178  0.76412868    -0.82800
O420        O  0.76999668  0.82705163  0.65914974    -0.81200
C421        C  0.80081926  0.73484200  0.80289845     0.87000
O422        O  0.79449874  0.77667859  0.71609132    -0.88300
O423        O  0.78175582  0.70556586  0.72529815    -0.88400
O424        O  0.75784447  0.71892289  0.68013473    -0.75500
Mg425      Mg  0.73435883  0.72931093  0.82562761     1.58000
O426        O  0.76498847  0.64649891  0.81207065    -0.82800
H427        H  0.73935640  0.83005321  0.80281642    -0.06600
O428        O  0.72316045  0.78365840  0.70288082    -0.88100
H429        H  0.69278499  0.76315411  0.67156020    -0.06400
H430        H  0.82699029  0.80735607  0.73411409    -0.06600
C431        C  0.69793222  0.76924727  0.69640147     0.87000
C432        C  0.73271058  0.80522930  0.79876517     0.87600
C433        C  0.80187291  0.80239469  0.72903108     0.87600
H434        H  0.76076082  0.67305167  0.69663986    -0.06500
O435        O  0.71860273  0.68109163  0.76068080    -0.75600
Mg436      Mg  0.76489990  0.77336144  0.67339241     1.58000
H437        H  0.67233147  0.69710600  0.76313054    -0.06600
C438        C  0.64583695  0.83553946  0.74503867     0.92600
O439        O  0.73346676  0.85578195  0.68638632    -0.82800
C440        C  0.75294152  0.85241933  0.66284939     0.92700
O441        O  0.68988612  0.73904483  0.85599234    -0.82800
Mg442      Mg  0.77351662  0.67644473  0.76729280     1.58200
O443        O  0.67091419  0.84005598  0.72765658    -0.81100
O444        O  0.85546020  0.69188462  0.73642650    -0.82800
N445        N  0.75646928  0.95354185  0.50186773    -0.36700
N446        N  0.75092570  0.00006261  0.45021689    -0.57200
N447        N  0.73875837  0.05037554  0.49783933    -0.36700
N448        N  0.74123908  0.00406717  0.54921937    -0.57200
C449        C  0.75467587  0.93352070  0.47605489     0.26900
C450        C  0.75023243  0.93582391  0.52856029     0.26900
C451        C  0.73276823  0.06654583  0.47025759     0.26900
C452        C  0.72712051  0.06846389  0.52240237     0.26900
C453        C  0.76126109  0.97452609  0.43279560     0.35500
C454        C  0.75376007  0.02613501  0.43092883     0.35500
C455        C  0.74965540  0.98002384  0.56939405     0.35500
C456        C  0.74052155  0.03120675  0.56718885     0.35500
C457        C  0.74775118  0.90263042  0.48660183    -0.21900
C458        C  0.74496059  0.90407964  0.51970870    -0.21900
C459        C  0.71715522  0.09526208  0.47731942    -0.21900
C460        C  0.71361817  0.09648137  0.51025793    -0.21900
C461        C  0.77023819  0.98434008  0.40211367    -0.23000
C462        C  0.76567116  0.01709373  0.40098988    -0.23000
C463        C  0.75391663  0.99185215  0.60041529    -0.23000
C464        C  0.74806410  0.02431027  0.59902375    -0.23000
C465        C  0.76027898  0.94220138  0.44339240    -0.18300
C466        C  0.75085773  0.94717836  0.56080601    -0.18300
C467        C  0.73143707  0.06178846  0.55550302    -0.18300
C468        C  0.74383719  0.05761892  0.43930352    -0.18300
H469        H  0.74511794  0.88120953  0.47199055     0.14600
H470        H  0.73973757  0.88398855  0.53548637     0.14600
H471        H  0.70977984  0.11382666  0.46054908     0.14600
H472        H  0.70307442  0.11618736  0.52370419     0.14600
H473        H  0.77892819  0.96941025  0.38252978     0.12800
H474        H  0.77003041  0.03239895  0.38031330     0.12800
H475        H  0.76014301  0.97841484  0.62190696     0.12800
H476        H  0.74889599  0.04081664  0.61921357     0.12800
H477        H  0.76468561  0.97706998  0.50174835     0.26100
H478        H  0.75401128  0.03073195  0.49995236     0.26100
O479        O  0.72637868  0.29135361  0.21767561    -0.88400
C480        C  0.73634282  0.19679902  0.19332676     0.87600
Mg481      Mg  0.76700558  0.32263753  0.22681316     1.58100
O482        O  0.70976718  0.21297243  0.27253736    -0.88100
O483        O  0.68107818  0.27569761  0.23958270    -0.75500
C484        C  0.85930832  0.24574604  0.33242137     0.92700
O485        O  0.78404768  0.25813830  0.17941430    -0.75300
O486        O  0.86125801  0.26708982  0.31043622    -0.82800
Mg487      Mg  0.72875585  0.26358376  0.17394221     1.58000
C488        C  0.75331594  0.16189855  0.34767616     0.92600
O489        O  0.67433527  0.26726737  0.16160888    -0.81000
H490        H  0.67779012  0.23207083  0.30325115    -0.06400
C491        C  0.80850201  0.19764030  0.26523128     0.87500
O492        O  0.76009950  0.31753727  0.28163411    -0.75600
O493        O  0.72078277  0.22082047  0.20143566    -0.88300
O494        O  0.73713714  0.15863141  0.32183129    -0.81100
C495        C  0.67335242  0.14144340  0.24322845     0.92700
C496        C  0.64859405  0.25078250  0.16556730     0.92600
Mg497      Mg  0.77974436  0.23100953  0.32268557     1.58000
O498        O  0.83448218  0.22768359  0.33511542    -0.81000
O499        O  0.72441514  0.23574462  0.31794882    -0.75300
O500        O  0.66698104  0.16648935  0.22657042    -0.81100
O501        O  0.73638712  0.30887659  0.14452799    -0.82800
O502        O  0.83961646  0.32943597  0.27118719    -0.81200
C503        C  0.70283954  0.22679047  0.29805793     0.87000
O504        O  0.78683023  0.27426803  0.29536114    -0.88300
O505        O  0.78243221  0.20372704  0.27835037    -0.88400
O506        O  0.82840997  0.21982149  0.25834126    -0.75500
Mg507      Mg  0.67842665  0.22097963  0.23178867     1.58000
O508        O  0.69862555  0.13965711  0.26060080    -0.82800
H509        H  0.69547459  0.32234343  0.23797487    -0.06600
O510        O  0.79894909  0.28174541  0.22439314    -0.88100
H511        H  0.83063725  0.26102038  0.19443946    -0.06400
H512        H  0.76448167  0.30203670  0.32789095    -0.06600
C513        C  0.80569044  0.26703955  0.19930125     0.87000
C514        C  0.70082975  0.29766074  0.23169801     0.87600
C515        C  0.77062543  0.29811886  0.30282461     0.87600
H516        H  0.81434356  0.17301165  0.25917861    -0.06500
O517        O  0.74751696  0.17735446  0.21409305    -0.75600
Mg518      Mg  0.82972378  0.27479767  0.26590486     1.58000
H519        H  0.74153919  0.19288544  0.16804643    -0.06600
C520        C  0.75614665  0.33201525  0.14792357     0.92600
O521        O  0.80931593  0.35583274  0.23597783    -0.82800
C522        C  0.83358650  0.35464940  0.25466033     0.92700
O523        O  0.64620429  0.23029496  0.18829793    -0.82800
Mg524      Mg  0.74176200  0.17219379  0.26890284     1.58200
O525        O  0.77314667  0.33520179  0.17329294    -0.81100
O526        O  0.77255841  0.18536309  0.35177889    -0.82800
N527        N  0.00326921  0.55195564  0.23148644    -0.36700
N528        N  0.94945998  0.50781740  0.23991422    -0.57200
N529        N  0.99477658  0.45465604  0.24467174    -0.36700
N530        N  0.04855740  0.49887560  0.23284282    -0.57200
C531        C  0.97843693  0.57129616  0.22292764     0.26900
C532        C  0.03081963  0.56712903  0.22292601     0.26900
C533        C  0.96626338  0.43878766  0.24233246     0.26900
C534        C  0.01850483  0.43376682  0.23618923     0.26900
C535        C  0.93338064  0.53612593  0.24138868     0.35500
C536        C  0.92903066  0.48498288  0.25102213     0.35500
C537        C  0.06975481  0.52351145  0.23578616     0.35500
C538        C  0.06521540  0.47154029  0.23897472     0.35500
C539        C  0.99039722  0.59902973  0.20864637    -0.21900
C540        C  0.02346509  0.59657262  0.20900333    -0.21900
C541        C  0.97198049  0.40741246  0.23246588    -0.21900
C542        C  0.00485808  0.40427958  0.22849920    -0.21900
C543        C  0.90251319  0.53128074  0.25337555    -0.23000
C544        C  0.89983681  0.49892930  0.25973419    -0.23000
C545        C  0.10013061  0.51177593  0.24335214    -0.23000
C546        C  0.09727246  0.47886265  0.24538495    -0.23000
C547        C  0.94549732  0.56591424  0.23008184    -0.18300
C548        C  0.06235755  0.55623857  0.22984631    -0.18300
C549        C  0.05224014  0.43999472  0.23705349    -0.18300
C550        C  0.93534383  0.45146456  0.25020877    -0.18300
H551        H  0.97677068  0.61937304  0.19965668     0.14600
H552        H  0.04011334  0.61462983  0.20026919     0.14600
H553        H  0.95429343  0.38867745  0.22847743     0.14600
H554        H  0.01730035  0.38263204  0.22095701     0.14600
H555        H  0.88379767  0.54914453  0.25691036     0.12800
H556        H  0.87855161  0.48697742  0.26900207     0.12800
H557        H  0.12210134  0.52546269  0.24670164     0.12800
H558        H  0.11663044  0.46222531  0.25086208     0.12800
H559        H  0.00182344  0.53167507  0.24608846     0.26100
H560        H  0.99808220  0.47729874  0.25485084     0.26100
O561        O  0.23501351  0.69553020  0.24893715    -0.88400
C562        C  0.24115533  0.76147103  0.17465922     0.87600
Mg563      Mg  0.20230189  0.70102462  0.28896887     1.58100
O564        O  0.30706882  0.76225775  0.22796623    -0.88100
O565        O  0.28653266  0.68947885  0.23820502    -0.75500
C566        C  0.22845157  0.85017814  0.33753906     0.92700
O567        O  0.17756093  0.74005691  0.21950985    -0.75300
O568        O  0.20560614  0.82979374  0.33590410    -0.82800
Mg569      Mg  0.21370949  0.70219086  0.20175053     1.58000
C570        C  0.33996544  0.85039837  0.26405595     0.92600
O571        O  0.24378675  0.66250009  0.17849400    -0.81000
H572        H  0.34407821  0.73958636  0.24897031    -0.06400
C573        C  0.23639540  0.82819016  0.24416531     0.87500
O574        O  0.24264913  0.72152851  0.32095859    -0.75600
O575        O  0.24936070  0.73840471  0.19155457    -0.88300
O576        O  0.33582751  0.83660399  0.23680264    -0.81100
C577        C  0.33250577  0.77824677  0.14807735     0.92700
C578        C  0.26844689  0.66026863  0.16027676     0.92600
Mg579      Mg  0.28328896  0.80714208  0.29712726     1.58000
O580        O  0.25412708  0.84687800  0.32099276    -0.81000
O581        O  0.31860880  0.76874554  0.27893212    -0.75300
O582        O  0.31605947  0.75265315  0.15208976    -0.81100
O583        O  0.17615377  0.66408457  0.21187880    -0.82800
O584        O  0.17758317  0.75867714  0.34504073    -0.81200
C585        C  0.32435186  0.75646474  0.25151014     0.87000
O586        O  0.24677987  0.77192231  0.30702202    -0.88300
O587        O  0.26258982  0.81498290  0.24971741    -0.88400
O588        O  0.21081009  0.82064009  0.25933735    -0.75500
Mg589      Mg  0.29871063  0.72305720  0.19560198     1.58000
O590        O  0.33024073  0.80179753  0.16768391    -0.82800
H591        H  0.26286546  0.66430936  0.27291342    -0.06600
O592        O  0.18967478  0.74782784  0.27012790    -0.88100
H593        H  0.15192316  0.76935294  0.24920896    -0.06400
H594        H  0.27344027  0.75289765  0.34243199    -0.06600
C595        C  0.17196517  0.75283706  0.24672832     0.87000
C596        C  0.26123999  0.68218150  0.25402639     0.87600
C597        C  0.25492406  0.74924387  0.32441342     0.87600
H598        H  0.23503243  0.84604335  0.22523924    -0.06500
O599        O  0.25417627  0.78893321  0.17795210    -0.75600
Mg600      Mg  0.19746643  0.78761712  0.30185505     1.58000
H601        H  0.22218138  0.75833513  0.15702177    -0.06600
C602        C  0.15803904  0.65837708  0.23596941     0.92600
O603        O  0.16751783  0.70824607  0.33048788    -0.82800
C604        C  0.16319546  0.73193055  0.34952440     0.92700
O605        O  0.29045405  0.68155719  0.16071283    -0.82800
Mg606      Mg  0.29521065  0.80931224  0.20962986     1.58200
O607        O  0.16181129  0.67320811  0.26266490    -0.81100
O608        O  0.32179147  0.84422994  0.28795588    -0.82800
N609        N  0.25321452  0.04994990  0.49960998    -0.36700
N610        N  0.26105898  0.99893769  0.54688078    -0.57200
N611        N  0.24469996  0.95199087  0.49690026    -0.36700
N612        N  0.23942744  0.00340305  0.45002144    -0.57200
C613        C  0.26655982  0.06615331  0.52449596     0.26900
C614        C  0.25681790  0.06826218  0.47285815     0.26900
C615        C  0.25513993  0.93234005  0.52073396     0.26900
C616        C  0.24536403  0.93495387  0.46902627     0.26900
C617        C  0.25982068  0.02465196  0.56695835     0.35500
C618        C  0.25625060  0.97253224  0.56537378     0.35500
C619        C  0.23200439  0.03050091  0.43379696     0.35500
C620        C  0.22841403  0.97877571  0.43199936     0.35500
C621        C  0.27878323  0.09521450  0.51353764    -0.21900
C622        C  0.27286192  0.09643876  0.48082292    -0.21900
C623        C  0.26191420  0.90220888  0.50799442    -0.21900
C624        C  0.25592904  0.90391146  0.47532764    -0.21900
C625        C  0.25477406  0.01450943  0.59840278    -0.23000
C626        C  0.25253928  0.98149255  0.59741229    -0.23000
C627        C  0.21575673  0.02308663  0.40548514    -0.23000
C628        C  0.21370751  0.99019031  0.40423030    -0.23000
C629        C  0.26424162  0.05703629  0.55725747    -0.18300
C630        C  0.24344498  0.06128466  0.44221213    -0.18300
C631        C  0.23515309  0.94623733  0.43841086    -0.18300
C632        C  0.25681999  0.94037558  0.55393151    -0.18300
H633        H  0.29007711  0.11388508  0.52781040     0.14600
H634        H  0.27872401  0.11626535  0.46494342     0.14600
H635        H  0.27026812  0.88116047  0.52091391     0.14600
H636        H  0.25872090  0.88439935  0.45824040     0.14600
H637        H  0.25299499  0.02932006  0.61981761     0.12800
H638        H  0.24870093  0.96585245  0.61794142     0.12800
H639        H  0.20733437  0.03957684  0.38709975     0.12800
H640        H  0.20341928  0.97623700  0.38472425     0.12800
H641        H  0.23840740  0.02981858  0.50178603     0.26100
H642        H  0.23448802  0.97464758  0.50017671     0.26100
O643        O  0.27138653  0.29925912  0.78080578    -0.88400
C644        C  0.26962271  0.20366374  0.80805289     0.87600
Mg645      Mg  0.22706558  0.32552824  0.77106656     1.58100
O646        O  0.29568621  0.21634724  0.72819172    -0.88100
O647        O  0.31621502  0.28392668  0.75700415    -0.75500
C648        C  0.14507862  0.23016773  0.67203266     0.92700
O649        O  0.21745143  0.26280003  0.82378928    -0.75300
O650        O  0.14094576  0.25059984  0.69452586    -0.82800
Mg651      Mg  0.27204875  0.27263622  0.82579408     1.58000
C652        C  0.25819191  0.15832278  0.65419555     0.92600
O653        O  0.32634405  0.28112182  0.83681845    -0.81000
H654        H  0.32623758  0.23676273  0.69694828    -0.06400
C655        C  0.20170484  0.19164710  0.74034834     0.87500
O656        O  0.23229021  0.31672447  0.71627859    -0.75600
O657        O  0.28213803  0.22903638  0.79883189    -0.88300
O658        O  0.27444418  0.15573633  0.68025220    -0.81100
C659        C  0.33796035  0.15108559  0.76484034     0.92700
C660        C  0.35245387  0.26516101  0.83318986     0.92600
Mg661      Mg  0.22524805  0.22561507  0.67934030     1.58000
O662        O  0.17195090  0.21570996  0.66819082    -0.81000
O663        O  0.27948727  0.23643865  0.68227228    -0.75300
O664        O  0.33962136  0.17784033  0.77976720    -0.81100
O665        O  0.26097258  0.31855198  0.85400322    -0.82800
O666        O  0.15469491  0.31826711  0.72704353    -0.81200
C667        C  0.30167326  0.22971091  0.70226687     0.87000
O668        O  0.21372965  0.26847628  0.70664284    -0.88300
O669        O  0.22557658  0.19833312  0.72368813    -0.88400
O670        O  0.18104857  0.21279029  0.74849937    -0.75500
Mg671      Mg  0.32448816  0.23026600  0.76877854     1.58000
O672        O  0.31577088  0.14529424  0.74440715    -0.82800
H673        H  0.29880852  0.32958185  0.75525395    -0.06600
O674        O  0.20078174  0.28123330  0.77737719    -0.88100
H675        H  0.17047757  0.26227410  0.80976939    -0.06400
H676        H  0.22965598  0.29722677  0.67138960    -0.06600
C677        C  0.19503091  0.26885484  0.80382729     0.87000
C678        C  0.29553258  0.30541013  0.76430080     0.87600
C679        C  0.22511527  0.29414579  0.69690724     0.87600
H680        H  0.19885441  0.16730243  0.74907111    -0.06500
O681        O  0.26272600  0.18118469  0.78840749    -0.75600
Mg682      Mg  0.17163132  0.26611206  0.73704916     1.58000
H683        H  0.26397043  0.20069975  0.83336032    -0.06600
C684        C  0.24044809  0.34113928  0.85033039     0.92600
O685        O  0.17963921  0.35184611  0.76080287    -0.82800
C686        C  0.15658080  0.34532668  0.74146733     0.92700
O687        O  0.35537374  0.24422079  0.81107679    -0.82800
Mg688      Mg  0.26928816  0.17223771  0.73370487     1.58200
O689        O  0.22345858  0.34316891  0.82462253    -0.81100
O690        O  0.23746241  0.18067709  0.65040048    -0.82800
N691        N  0.99488216  0.45162659  0.72433475    -0.36700
N692        N  0.04855307  0.49704979  0.72961963    -0.57200
N693        N  0.00337456  0.54996296  0.73262498    -0.36700
N694        N  0.94944490  0.50472752  0.73122710    -0.57200
C695        C  0.01948771  0.43102183  0.73068288     0.26900
C696        C  0.96690606  0.43513088  0.72769438     0.26900
C697        C  0.03149352  0.56541813  0.73874132     0.26900
C698        C  0.97907118  0.56931760  0.74271530     0.26900
C699        C  0.06502074  0.46962012  0.72371259     0.35500
C700        C  0.06938101  0.52145930  0.72408909     0.35500
C701        C  0.92830263  0.48119355  0.72326477     0.35500
C702        C  0.93278745  0.53277525  0.73052935     0.35500
C703        C  0.00700572  0.40086341  0.73755793    -0.21900
C704        C  0.97386779  0.40340111  0.73553613    -0.21900
C705        C  0.02502699  0.59510383  0.75253742    -0.21900
C706        C  0.99196683  0.59751748  0.75518511    -0.21900
C707        C  0.09649509  0.47660505  0.71470137    -0.23000
C708        C  0.09914055  0.50946636  0.71452731    -0.23000
C709        C  0.89804253  0.49440414  0.71764767    -0.23000
C710        C  0.90085716  0.52699588  0.72235797    -0.23000
C711        C  0.05289477  0.43828948  0.72870278    -0.18300
C712        C  0.93530873  0.44774682  0.72322500    -0.18300
C713        C  0.94558128  0.56337179  0.73860996    -0.18300
C714        C  0.06269849  0.55420298  0.73030452    -0.18300
H715        H  0.02038627  0.37918246  0.74312576     0.14600
H716        H  0.95684644  0.38407294  0.73960317     0.14600
H717        H  0.04232564  0.61324394  0.75972621     0.14600
H718        H  0.97890288  0.61799591  0.76471006     0.14600
H719        H  0.11560629  0.45976609  0.70893514     0.12800
H720        H  0.12074357  0.52291207  0.70871676     0.12800
H721        H  0.87609234  0.48186253  0.71115394     0.12800
H722        H  0.88155487  0.54442697  0.72005978     0.12800
H723        H  0.99703896  0.47480396  0.71527347     0.26100
H724        H  0.00086502  0.52930430  0.71877085     0.26100
N725        N  0.49619835  0.25637672  0.04721094    -0.36700
N726        N  0.55052765  0.26635549  0.00344382    -0.57200
N727        N  0.50542876  0.26952700  0.94996615    -0.36700
N728        N  0.45101593  0.26336721  0.99376296    -0.57200
C729        C  0.52023620  0.26303866  0.06838047     0.26900
C730        C  0.46784132  0.25990992  0.06316784     0.26900
C731        C  0.53322254  0.27733399  0.93479431     0.26900
C732        C  0.48094082  0.27680144  0.92968409     0.26900
C733        C  0.56665870  0.25802275  0.03052060     0.35500
C734        C  0.57159770  0.26306897  0.97869688     0.35500
C735        C  0.43008749  0.25376290  0.01689641     0.35500
C736        C  0.43508287  0.26118436  0.96536672     0.35500
C737        C  0.50691601  0.27088686  0.09810071    -0.21900
C738        C  0.47390456  0.26873133  0.09485820    -0.21900
C739        C  0.52633759  0.28970219  0.90446108    -0.21900
C740        C  0.49330563  0.28947957  0.90128714    -0.21900
C741        C  0.59820919  0.24961709  0.02292775    -0.23000
C742        C  0.60137120  0.25297417  0.99007966    -0.23000
C743        C  0.40058494  0.24593942  0.00320453    -0.23000
C744        C  0.40372508  0.25071670  0.97056463    -0.23000
C745        C  0.55384522  0.26014265  0.06215343    -0.18300
C746        C  0.43670161  0.25380031  0.05037343    -0.18300
C747        C  0.44805207  0.26948058  0.93488418    -0.18300
C748        C  0.56459715  0.27033572  0.94615254    -0.18300
H749        H  0.51964803  0.27722239  0.11999677     0.14600
H750        H  0.45634187  0.27314527  0.11372108     0.14600
H751        H  0.54337763  0.29727885  0.88615310     0.14600
H752        H  0.47996447  0.29684832  0.88007624     0.14600
H753        H  0.61706388  0.24208259  0.03935957     0.12800
H754        H  0.62308954  0.24858132  0.97618890     0.12800
H755        H  0.37899716  0.23775829  0.01543615     0.12800
H756        H  0.38505938  0.24684547  0.95270590     0.12800
H757        H  0.49901394  0.24634030  0.02439000     0.26100
H758        H  0.50358950  0.25585324  0.97083457     0.26100
N759        N  0.44970665  0.76829246  0.99642936    -0.36700
N760        N  0.50257627  0.76215070  0.95043599    -0.57200
N761        N  0.54796317  0.77043814  0.00277749    -0.36700
N762        N  0.49536455  0.77987450  0.04878395    -0.57200
C763        C  0.43306283  0.76871677  0.96830275     0.26900
C764        C  0.42926623  0.77809124  0.02002101     0.26900
C765        C  0.56798405  0.77381588  0.97713811     0.26900
C766        C  0.56407140  0.78118686  0.02900477     0.26900
C767        C  0.47797912  0.75429846  0.93058215     0.35500
C768        C  0.53013112  0.75649861  0.93388368     0.35500
C769        C  0.46789854  0.77691201  0.06622476     0.35500
C770        C  0.52018591  0.77639654  0.06972527     0.35500
C771        C  0.40158264  0.77860519  0.97418756    -0.21900
C772        C  0.39919452  0.78450969  0.00677158    -0.21900
C773        C  0.59713495  0.78673026  0.98726518    -0.21900
C774        C  0.59465714  0.79139111  0.01999222    -0.21900
C775        C  0.48997288  0.74373343  0.90115195    -0.23000
C776        C  0.52305135  0.74520539  0.90322552    -0.23000
C777        C  0.47528789  0.77236721  0.09853871    -0.23000
C778        C  0.50843913  0.77178335  0.10072033    -0.23000
C779        C  0.44490611  0.75895934  0.93768804    -0.18300
C780        C  0.43624353  0.77907607  0.05348392    -0.18300
C781        C  0.55324772  0.77885839  0.06128449    -0.18300
C782        C  0.56140886  0.76396023  0.94515528    -0.18300
H783        H  0.38220375  0.78106341  0.95683773     0.14600
H784        H  0.37761489  0.79226314  0.01934328     0.14600
H785        H  0.61820384  0.79186660  0.97267186     0.14600
H786        H  0.61345526  0.80070892  0.03553826     0.14600
H787        H  0.47631311  0.73650568  0.88010293     0.12800
H788        H  0.53991895  0.73929982  0.88413831     0.12800
H789        H  0.45854883  0.76945319  0.11840890     0.12800
H790        H  0.52226568  0.76853910  0.12263596     0.12800
H791        H  0.47240548  0.75837665  0.99988867     0.26100
H792        H  0.52645397  0.75765579  0.00321902     0.26100
C793        C  0.40428245  0.29549585  0.90301389    -0.26400
C794        C  0.42596474  0.26991997  0.90665158    -0.14400
C795        C  0.42531049  0.24424210  0.88441911     0.36200
C796        C  0.40231700  0.24412173  0.85969649    -0.25800
C797        C  0.37938909  0.26904504  0.85671898    -0.15100
C798        C  0.38097908  0.29522282  0.87841827     0.37300
N799        N  0.35849037  0.32122842  0.87628152    -0.89300
H800        H  0.40484308  0.31534604  0.91997570     0.18400
H801        H  0.40158358  0.22358645  0.84359651     0.18400
N802        N  0.44696033  0.21745491  0.88714112    -0.88300
H803        H  0.37153663  0.34252667  0.87315011     0.35800
H804        H  0.34659945  0.32253702  0.89847578     0.40900
H805        H  0.44406221  0.20717956  0.90999268     0.40500
H806        H  0.47064456  0.22588452  0.88513979     0.35400
C807        C  0.11960733  0.38667891  0.76431261    -0.26400
C808        C  0.12992277  0.36896697  0.73729267    -0.14400
C809        C  0.11313297  0.37252627  0.70774217     0.36200
C810        C  0.08692028  0.39413234  0.70580316    -0.25800
C811        C  0.07717560  0.41212139  0.73273772    -0.15100
C812        C  0.09343491  0.40791305  0.76237350     0.37300
N813        N  0.08376228  0.42494918  0.79086255    -0.89300
H814        H  0.13167063  0.38362441  0.78732364     0.18400
H815        H  0.07464773  0.39775040  0.68299648     0.18400
N816        N  0.12320387  0.35482454  0.67967866    -0.88300
H817        H  0.08569275  0.44963122  0.78647952     0.35800
H818        H  0.05952853  0.41959065  0.79549982     0.40900
H819        H  0.14632797  0.36274288  0.67350002     0.40500
H820        H  0.10823916  0.36009687  0.66001019     0.35400
C821        C  0.23505177  0.12731976  0.60825089    -0.26400
C822        C  0.26170092  0.13344630  0.62837326    -0.14400
C823        C  0.28981460  0.11423892  0.62479386     0.36200
C824        C  0.29032177  0.08928213  0.60158980    -0.25800
C825        C  0.26339754  0.08321003  0.58193694    -0.15100
C826        C  0.23554455  0.10250308  0.58547762     0.37300
N827        N  0.20699941  0.09680611  0.56677910    -0.89300
H828        H  0.21310375  0.14132273  0.61084624     0.18400
H829        H  0.31175383  0.07457070  0.59871448     0.18400
N830        N  0.31772274  0.12015501  0.64452939    -0.88300
H831        H  0.21252855  0.09980943  0.54235845     0.35800
H832        H  0.19966900  0.07302683  0.57048804     0.40900
H833        H  0.32650190  0.14298368  0.63857878     0.40500
H834        H  0.33613528  0.10379760  0.63909231     0.35400
C835        C  0.37363127  0.80807688  0.11501935    -0.26400
C836        C  0.35652354  0.77944682  0.12114004    -0.14400
C837        C  0.36534087  0.75137759  0.10376960     0.36200
C838        C  0.39091733  0.75234133  0.08164052    -0.25800
C839        C  0.40849554  0.78056856  0.07640122    -0.15100
C840        C  0.39945670  0.80901893  0.09295208     0.37300
N841        N  0.41612306  0.83902717  0.08848395    -0.89300
H842        H  0.36747829  0.82984803  0.12804312     0.18400
H843        H  0.39764611  0.73053660  0.06892161     0.18400
N844        N  0.34931693  0.72135153  0.10922412    -0.88300
H845        H  0.39960032  0.85544557  0.07885678     0.35800
H846        H  0.43479704  0.83698051  0.07166689     0.40900
H847        H  0.36653559  0.70462015  0.11695033     0.40500
H848        H  0.33986948  0.71339606  0.08723164     0.35400
C849        C  0.25226297  0.90006038  0.36089004    -0.26400
C850        C  0.22707604  0.87729023  0.36100245    -0.14400
C851        C  0.20378885  0.87873260  0.38592782     0.36200
C852        C  0.20680350  0.90170010  0.41053476    -0.25800
C853        C  0.23282427  0.92315977  0.41114549    -0.15100
C854        C  0.25574956  0.92260371  0.38573791     0.37300
N855        N  0.28312003  0.94392360  0.38453797    -0.89300
H856        H  0.27037065  0.89964688  0.34197627     0.18400
H857        H  0.18901362  0.90236940  0.42973529     0.18400
N858        N  0.17759831  0.85633381  0.38715034    -0.88300
H859        H  0.30399469  0.92976539  0.38544653     0.35800
H860        H  0.28413259  0.95906986  0.40456783     0.40900
H861        H  0.15597980  0.86935745  0.38691460     0.40500
H862        H  0.17897340  0.84402566  0.40911345     0.35400
C863        C  0.11795969  0.62143487  0.26199424    -0.26400
C864        C  0.13301653  0.63260580  0.23362233    -0.14400
C865        C  0.12523005  0.61751851  0.20394924     0.36200
C866        C  0.10321880  0.59178885  0.20332149    -0.25800
C867        C  0.08833286  0.58093672  0.23167329    -0.15100
C868        C  0.09577180  0.59603636  0.26123764     0.37300
N869        N  0.08081608  0.58617109  0.29081912    -0.89300
H870        H  0.12354504  0.63232060  0.28509007     0.18400
H871        H  0.09706092  0.58074419  0.18044390     0.18400
N872        N  0.13916465  0.62843037  0.17425174    -0.88300
H873        H  0.05579959  0.58866404  0.28838687     0.35800
H874        H  0.08605681  0.56186204  0.29459878     0.40900
H875        H  0.12039354  0.63526046  0.15881193     0.40500
H876        H  0.15141523  0.60912869  0.16364268     0.35400
C877        C  0.57383575  0.23498267  0.11340224    -0.26400
C878        C  0.57672993  0.25930905  0.09010769    -0.14400
C879        C  0.60165392  0.28211447  0.09325074     0.36200
C880        C  0.62391117  0.27951105  0.11863217    -0.25800
C881        C  0.62177245  0.25466027  0.14165703    -0.15100
C882        C  0.59572435  0.23255840  0.13933420     0.37300
N883        N  0.59194281  0.20716362  0.16258456    -0.89300
H884        H  0.55452446  0.21755439  0.11108636     0.18400
H885        H  0.64333788  0.29691310  0.11990384     0.18400
N886        N  0.60463522  0.30784837  0.07044400    -0.88300
H887        H  0.57270234  0.19215136  0.15631354     0.35800
H888        H  0.58557357  0.21785296  0.18454642     0.40900
H889        H  0.62747793  0.30629299  0.05975988     0.40500
H890        H  0.60341837  0.32959142  0.08308007     0.35400
C891        C  0.88206948  0.38155816  0.27870716    -0.26400
C892        C  0.85689351  0.38223139  0.25582844    -0.14400
C893        C  0.85674215  0.40764151  0.23280877     0.36200
C894        C  0.88209361  0.42990012  0.23216518    -0.25800
C895        C  0.90765334  0.42852688  0.25434304    -0.15100
C896        C  0.90698082  0.40452969  0.27868343     0.37300
N897        N  0.93118015  0.40239929  0.30350764    -0.89300
H898        H  0.88272627  0.36274778  0.29680326     0.18400
H899        H  0.88219001  0.44821466  0.21353851     0.18400
N900        N  0.83185175  0.41130337  0.20908039    -0.88300
H901        H  0.91945752  0.40483350  0.32573017     0.35800
H902        H  0.94750073  0.42146671  0.30225572     0.40900
H903        H  0.80967388  0.41390387  0.22079283     0.40500
H904        H  0.83151067  0.39097152  0.19417238     0.35400
C905        C  0.72308475  0.11625891  0.37232183    -0.26400
C906        C  0.75043989  0.13639476  0.37252505    -0.14400
C907        C  0.77570539  0.12981196  0.39444413     0.36200
C908        C  0.77326876  0.10350767  0.41539095    -0.25800
C909        C  0.74610210  0.08353011  0.41493067    -0.15100
C910        C  0.72053357  0.09006347  0.39357872     0.37300
N911        N  0.69215930  0.07015911  0.39372076    -0.89300
H912        H  0.70355881  0.12099444  0.35557453     0.18400
H913        H  0.79269927  0.09864597  0.43223544     0.18400
N914        N  0.80434857  0.14905627  0.39493796    -0.88300
H915        H  0.67568495  0.07803951  0.37624759     0.35800
H916        H  0.68081204  0.07308196  0.41604496     0.40900
H917        H  0.82403442  0.13394103  0.39035840     0.40500
H918        H  0.80702455  0.15849660  0.41817655     0.35400
C919        C  0.62114373  0.78793064  0.87981547    -0.26400
C920        C  0.64113216  0.76055715  0.87811619    -0.14400
C921        C  0.63439553  0.73414931  0.89860567     0.36200
C922        C  0.60848587  0.73575778  0.92042783    -0.25800
C923        C  0.58869493  0.76302699  0.92185405    -0.15100
C924        C  0.59507110  0.78928735  0.90149044     0.37300
N925        N  0.57494806  0.81729694  0.90278520    -0.89300
H926        H  0.62551916  0.80825825  0.86403875     0.18400
H927        H  0.60343514  0.71539281  0.93596102     0.18400
N928        N  0.65283654  0.70506244  0.89640335    -0.88300
H929        H  0.56510096  0.82093255  0.87984129     0.35800
H930        H  0.58955193  0.83705508  0.90827452     0.40900
H931        H  0.63706734  0.68630468  0.89060029     0.40500
H932        H  0.66274477  0.70027606  0.91911014     0.35400
C933        C  0.90116028  0.64328867  0.72823428    -0.26400
C934        C  0.87875191  0.64240266  0.75379530    -0.14400
C935        C  0.87898461  0.61540661  0.77460330     0.36200
C936        C  0.90130200  0.59036875  0.76945944    -0.25800
C937        C  0.92269659  0.59087167  0.74312976    -0.15100
C938        C  0.92212420  0.61756422  0.72187478     0.37300
N939        N  0.94162123  0.61912516  0.69312472    -0.89300
H940        H  0.90121538  0.66339169  0.71163818     0.18400
H941        H  0.90147941  0.56999122  0.78578021     0.18400
N942        N  0.85635352  0.61289789  0.80065761    -0.88300
H943        H  0.92592489  0.62066212  0.67340986     0.35800
H944        H  0.95497461  0.59813887  0.68960058     0.40900
H945        H  0.86932306  0.61039464  0.82215646     0.40500
H946        H  0.84278225  0.59196426  0.79726084     0.35400
C947        C  0.78015549  0.90638717  0.59375565    -0.26400
C948        C  0.75154543  0.92321817  0.58729683    -0.14400
C949        C  0.72395701  0.91754988  0.60622715     0.36200
C950        C  0.72537089  0.89520562  0.63146891    -0.25800
C951        C  0.75386598  0.87786302  0.63785499    -0.15100
C952        C  0.78150211  0.88361993  0.61874448     0.37300
N953        N  0.81103421  0.86672297  0.62481640    -0.89300
H954        H  0.80148173  0.91092712  0.57927425     0.18400
H955        H  0.70371298  0.89070714  0.64547503     0.18400
N956        N  0.69434653  0.93407829  0.59942958    -0.88300
H957        H  0.82899195  0.88369463  0.62971803     0.35800
H958        H  0.81752716  0.85446842  0.60373150     0.40900
H959        H  0.68740539  0.94660904  0.62019860     0.40500
H960        H  0.67662678  0.91686024  0.59450927     0.35400
C961        C  0.73313066  0.39301854  0.08374622    -0.26400
C962        C  0.76214115  0.40989991  0.07976776    -0.14400
C963        C  0.78995213  0.39991930  0.09697976     0.36200
C964        C  0.78759792  0.37396604  0.11851029    -0.25800
C965        C  0.75842252  0.35719763  0.12272333    -0.15100
C966        C  0.73097456  0.36691517  0.10503754     0.37300
N967        N  0.70049668  0.35122792  0.10955255    -0.89300
H968        H  0.71189858  0.40033835  0.07031333     0.18400
H969        H  0.80880821  0.36687223  0.13209862     0.18400
N970        N  0.82076856  0.41544611  0.09335746    -0.88300
H971        H  0.69282035  0.34241677  0.08719563     0.35800
H972        H  0.68374305  0.36841782  0.11730308     0.40900
H973        H  0.81969670  0.43450698  0.07702277     0.40500
H974        H  0.83679592  0.39856189  0.08361411     0.35400
C975        C  0.72406213  0.59731976  0.90904405    -0.26400
C976        C  0.75190419  0.57821428  0.91219137    -0.14400
C977        C  0.77771616  0.58270154  0.89015156     0.36200
C978        C  0.77435884  0.60499095  0.86496828    -0.25800
C979        C  0.74656502  0.62424858  0.86170143    -0.15100
C980        C  0.72115969  0.62040559  0.88423868     0.37300
N981        N  0.69243933  0.63968796  0.88181839    -0.89300
H982        H  0.70435440  0.59394418  0.92593632     0.18400
H983        H  0.79444408  0.60809333  0.84846019     0.18400
N984        N  0.80777290  0.56543653  0.89264775    -0.88300
H985        H  0.67633129  0.63413651  0.90044435     0.35800
H986        H  0.68091179  0.63356729  0.86022601     0.40900
H987        H  0.80840868  0.55069799  0.91299091     0.40500
H988        H  0.82611182  0.58240569  0.89596946     0.35400
C989        C  0.21169483  0.38915581  0.87455806    -0.26400
C990        C  0.23721325  0.36666206  0.87591910    -0.14400
C991        C  0.26032080  0.37018016  0.90086994     0.36200
C992        C  0.25824734  0.39601310  0.92263269    -0.25800
C993        C  0.23330580  0.41875987  0.92083938    -0.15100
C994        C  0.20926034  0.41467659  0.89685794     0.37300
N995        N  0.18152520  0.43524455  0.89525469    -0.89300
H996        H  0.19332293  0.38690178  0.85608872     0.18400
H997        H  0.27660609  0.39845783  0.94112019     0.18400
N998        N  0.28674002  0.34822490  0.90388922    -0.88300
H999        H  0.18895493  0.45875499  0.89062873     0.35800
H1000       H  0.16992018  0.43475902  0.91767423     0.40900
H1001       H  0.28565526  0.33780383  0.92683371     0.40500
H1002       H  0.30799871  0.36169612  0.90247254     0.35400
C1003       C  0.29048159  0.60675850  0.08824690    -0.26400
C1004       C  0.26343995  0.58648981  0.08710753    -0.14400
C1005       C  0.23944421  0.58910705  0.11124650     0.36200
C1006       C  0.24298628  0.61196913  0.13567611    -0.25800
C1007       C  0.26946785  0.63319707  0.13658367    -0.15100
C1008       C  0.29385703  0.63008510  0.11272545     0.37300
N1009       N  0.32159154  0.65082403  0.11291534    -0.89300
H1010       H  0.30895248  0.60438429  0.06984297     0.18400
H1011       H  0.22387289  0.61380804  0.15347009     0.18400
N1012       N  0.21056273  0.56987021  0.11123769    -0.88300
H1013       H  0.33649315  0.64610352  0.09309138     0.35800
H1014       H  0.33511947  0.64527231  0.13349072     0.40900
H1015       H  0.20894058  0.55505357  0.09099377     0.40500
H1016       H  0.21142622  0.55485818  0.13146341     0.35400
C1017       C  0.40572577  0.10123826  0.80212864    -0.26400
C1018       C  0.41701690  0.08458441  0.77491498    -0.14400
C1019       C  0.40143010  0.08892010  0.74495558     0.36200
C1020       C  0.37534225  0.11009879  0.74256189    -0.25800
C1021       C  0.36398500  0.12704520  0.76961676    -0.15100
C1022       C  0.37911136  0.12230253  0.79985393     0.37300
N1023       N  0.36689976  0.13819595  0.82816756    -0.89300
H1024       H  0.41710473  0.09700500  0.82529070     0.18400
H1025       H  0.36410873  0.11364011  0.71920207     0.18400
N1026       N  0.41149067  0.07179058  0.71665087    -0.88300
H1027       H  0.38061745  0.13197074  0.84842930     0.35800
H1028       H  0.34356341  0.12955261  0.83232884     0.40900
H1029       H  0.43585013  0.07688673  0.71241228     0.40500
H1030       H  0.40918941  0.04713157  0.72098806     0.35400
C1031       C  0.57152387  0.88416387  0.76953073    -0.26400
C1032       C  0.57459999  0.91170220  0.75025801    -0.14400
C1033       C  0.59960012  0.91282655  0.72682368     0.36200
C1034       C  0.62175802  0.88722743  0.72479094    -0.25800
C1035       C  0.61927779  0.85997143  0.74485263    -0.15100
C1036       C  0.59315512  0.85835783  0.76690923     0.37300
N1037       N  0.58874123  0.83097511  0.78744774    -0.89300
H1038       H  0.55230694  0.88288204  0.78728275     0.18400
H1039       H  0.64140214  0.88902826  0.70758525     0.18400
N1040       N  0.60356795  0.93947202  0.70500769    -0.88300
H1041       H  0.56578244  0.82147610  0.78303923     0.35800
H1042       H  0.58947418  0.83877170  0.81143641     0.40900
H1043       H  0.58497673  0.95626234  0.70743051     0.40500
H1044       H  0.60163163  0.93050431  0.68152203     0.35400
C1045       C  0.39131614  0.77359654  0.86471627    -0.26400
C1046       C  0.37281911  0.74509019  0.86369472    -0.14400
C1047       C  0.37952624  0.72065393  0.88654460     0.36200
C1048       C  0.40360240  0.72542823  0.90994533    -0.25800
C1049       C  0.42109588  0.75420585  0.91127836    -0.15100
C1050       C  0.41498650  0.77844133  0.88830381     0.37300
N1051       N  0.43176269  0.80857410  0.88906728    -0.89300
H1052       H  0.38675314  0.79286653  0.84770604     0.18400
H1053       H  0.40824898  0.70677941  0.92762884     0.18400
N1054       N  0.36156493  0.69123667  0.88672322    -0.88300
H1055       H  0.45648463  0.80414200  0.88655876     0.35800
H1056       H  0.42782512  0.81926503  0.91158177     0.40900
H1057       H  0.35038581  0.68895816  0.90925189     0.40500
H1058       H  0.37785880  0.67217928  0.88408172     0.35400
C1059       C  0.11764372  0.62415988  0.70711801    -0.26400
C1060       C  0.14212784  0.62186419  0.73057425    -0.14400
C1061       C  0.14092315  0.59635088  0.75314299     0.36200
C1062       C  0.11474117  0.57478456  0.75248454    -0.25800
C1063       C  0.09001490  0.57762614  0.72943896    -0.15100
C1064       C  0.09185405  0.60240271  0.70605432     0.37300
N1065       N  0.06799626  0.60659432  0.68113881    -0.89300
H1066       H  0.11794287  0.64363500  0.68973838     0.18400
H1067       H  0.11347240  0.55559681  0.77014825     0.18400
N1068       N  0.16600706  0.59254852  0.77682386    -0.88300
H1069       H  0.07973622  0.60427018  0.65890830     0.35800
H1070       H  0.05050390  0.58857924  0.68163101     0.40900
H1071       H  0.18735885  0.58718591  0.76449224     0.40500
H1072       H  0.16119997  0.57287036  0.79184245     0.35400
C1073       C  0.28510049  0.88263815  0.61977676    -0.26400
C1074       C  0.25701924  0.86429601  0.62535872    -0.14400
C1075       C  0.22958613  0.86986642  0.60548089     0.36200
C1076       C  0.23039500  0.89461747  0.58232146    -0.25800
C1077       C  0.25797616  0.91358595  0.57790313    -0.15100
C1078       C  0.28589871  0.90684960  0.59623272     0.37300
N1079       N  0.31547194  0.92399862  0.59117883    -0.89300
H1080       H  0.30657765  0.87856064  0.63414284     0.18400
H1081       H  0.20921742  0.89941837  0.56772429     0.18400
N1082       N  0.20071187  0.85098768  0.60912338    -0.88300
H1083       H  0.31156588  0.94838279  0.59585913     0.35800
H1084       H  0.32210012  0.92146137  0.56695701     0.40900
H1085       H  0.20612882  0.82757591  0.60160034     0.40500
H1086       H  0.18248098  0.85926356  0.59376512     0.35400
C1087       C  0.26168472  0.63414241  0.89390988    -0.26400
C1088       C  0.23333147  0.63952619  0.87604529    -0.14400
C1089       C  0.20590446  0.62028353  0.88259770     0.36200
C1090       C  0.20807110  0.59512796  0.90514855    -0.25800
C1091       C  0.23695982  0.58893786  0.92168609    -0.15100
C1092       C  0.26400822  0.60908887  0.91631882     0.37300
N1093       N  0.29431333  0.60479945  0.93278654    -0.89300
H1094       H  0.28292397  0.64876303  0.88967219     0.18400
H1095       H  0.18701272  0.58038538  0.90989719     0.18400
N1096       N  0.17578484  0.62613423  0.86661610    -0.88300
H1097       H  0.31190891  0.60001341  0.91531199     0.35800
H1098       H  0.29408799  0.58485322  0.94803146     0.28900
H1099       H  0.15828918  0.63081505  0.88422237     0.40500
H1100       H  0.16911960  0.60515115  0.85439773     0.35400
C1101       C  0.37188582  0.88338428  0.79635477    -0.26400
C1102       C  0.35348528  0.87901782  0.76812076    -0.14400
C1103       C  0.36239746  0.89619265  0.73997480     0.36200
C1104       C  0.38921739  0.91681981  0.74059528    -0.25800
C1105       C  0.40781246  0.92046912  0.76859196    -0.15100
C1106       C  0.39885355  0.90373236  0.79695303     0.37300
N1107       N  0.41668836  0.90640264  0.82662330    -0.89300
H1108       H  0.36580053  0.87030450  0.81815136     0.18400
H1109       H  0.39569279  0.93002089  0.71898216     0.18400
N1110       N  0.34494695  0.89222530  0.71038843    -0.88300
H1111       H  0.40151397  0.91723666  0.84367877     0.35800
H1112       H  0.43684242  0.92121991  0.82425498     0.40900
H1113       H  0.36103204  0.88389509  0.69279361     0.40500
H1114       H  0.33640021  0.91476840  0.70312978     0.35400
C1115       C  0.10647946  0.75059686  0.42037678    -0.26400
C1116       C  0.08851070  0.72215968  0.42210064    -0.14400
C1117       C  0.09578369  0.69675790  0.40091667     0.36200
C1118       C  0.12124018  0.69996288  0.37873466    -0.25800
C1119       C  0.13912440  0.72874578  0.37629576    -0.15100
C1120       C  0.13103678  0.75451370  0.39750037     0.37300
N1121       N  0.14629080  0.78536489  0.39598118    -0.89300
H1122       H  0.10050699  0.77046910  0.43625969     0.18400
H1123       H  0.12616600  0.68004819  0.36258246     0.18400
N1124       N  0.07684337  0.66795513  0.40137973    -0.88300
H1125       H  0.14181387  0.79562993  0.37340297     0.35800
H1126       H  0.17112924  0.78249272  0.39952500     0.40900
H1127       H  0.09234522  0.64853726  0.40561853     0.40500
H1128       H  0.06664934  0.66495812  0.37849517     0.35400
C1129       C  0.90245098  0.70702211  0.59863162    -0.26400
C1130       C  0.90789430  0.73162913  0.57625399    -0.14400
C1131       C  0.88636828  0.75794775  0.57487828     0.36200
C1132       C  0.86065821  0.75984440  0.59674797    -0.25800
C1133       C  0.85584116  0.73593025  0.62025183    -0.15100
C1134       C  0.87658081  0.70879099  0.62047058     0.37300
N1135       N  0.87153701  0.68291616  0.64273831    -0.89300
H1136       H  0.91847660  0.68638784  0.59921852     0.18400
H1137       H  0.84514592  0.78084823  0.59610991     0.18400
N1138       N  0.89059862  0.78345195  0.55202230    -0.88300
H1139       H  0.89259716  0.68015889  0.65636025     0.35800
H1140       H  0.86812125  0.66180415  0.62945115     0.40900
H1141       H  0.91359536  0.79329344  0.55529812     0.40500
H1142       H  0.88935175  0.77378584  0.52877210     0.35400
C1143       C  0.07611199  0.72580697  0.61484658    -0.26400
C1144       C  0.07595890  0.74576198  0.58754077    -0.14400
C1145       C  0.09756568  0.77220053  0.58626366     0.36200
C1146       C  0.11949269  0.77704480  0.61164640    -0.25800
C1147       C  0.12034566  0.75651846  0.63858429    -0.15100
C1148       C  0.09757740  0.73112467  0.64056248     0.37300
N1149       N  0.09645870  0.71058666  0.66848793    -0.89300
H1150       H  0.05924584  0.70591071  0.61605178     0.18400
H1151       H  0.13675832  0.79652519  0.60966861     0.18400
N1152       N  0.09839671  0.79435510  0.55959222    -0.88300
H1153       H  0.07871792  0.69289482  0.66586473     0.35800
H1154       H  0.08952497  0.72477718  0.68816199     0.40900
H1155       H  0.08060115  0.78932137  0.54252733     0.40500
H1156       H  0.09297112  0.81720042  0.56863647     0.35400
C1157       C  0.60855478  0.79599511  0.13328280    -0.26400
C1158       C  0.62968268  0.76937087  0.13184284    -0.14400
C1159       C  0.62528682  0.74653821  0.10696072     0.36200
C1160       C  0.59962405  0.75002167  0.08526313    -0.25800
C1161       C  0.57858856  0.77647091  0.08675597    -0.15100
C1162       C  0.58361924  0.80026319  0.11070240     0.37300
N1163       N  0.56439705  0.82905444  0.11273786    -0.89300
H1164       H  0.61145131  0.81395557  0.15201747     0.18400
H1165       H  0.59637868  0.73204901  0.06657246     0.18400
N1166       N  0.64684170  0.71979721  0.10328676    -0.88300
H1167       H  0.57990275  0.84864238  0.10955837     0.35800
H1168       H  0.54759306  0.83042192  0.09405504     0.40900
H1169       H  0.65711075  0.72101372  0.08024648     0.40500
H1170       H  0.63331632  0.69861612  0.10470452     0.35400
C1171       C  0.87690263  0.61929197  0.19979496    -0.26400
C1172       C  0.87781861  0.64452796  0.22236638    -0.14400
C1173       C  0.90331790  0.64550121  0.24505176     0.36200
C1174       C  0.92500051  0.61956523  0.24694322    -0.25800
C1175       C  0.92264441  0.59330401  0.22581059    -0.15100
C1176       C  0.89927218  0.59395088  0.20087469     0.37300
N1177       N  0.89713244  0.56924345  0.17664373    -0.89300
H1178       H  0.85788960  0.61848552  0.18186839     0.18400
H1179       H  0.94374277  0.61961916  0.26519877     0.18400
N1180       N  0.90686059  0.67259791  0.26633725    -0.88300
H1181       H  0.90108255  0.58015017  0.15424920     0.35800
H1182       H  0.91531679  0.55204593  0.17920950     0.40900
H1183       H  0.91163212  0.69276769  0.25204456     0.40500
H1184       H  0.92690393  0.66957129  0.28138812     0.35400
C1185       C  0.78987402  0.87518727  0.38711764    -0.26400
C1186       C  0.76150708  0.86773848  0.36972877    -0.14400
C1187       C  0.73306093  0.88589359  0.37683257     0.36200
C1188       C  0.73359566  0.90960311  0.40080847    -0.25800
C1189       C  0.76159666  0.91631676  0.41834514    -0.15100
C1190       C  0.79016646  0.89922847  0.41129863     0.37300
N1191       N  0.81941533  0.90671421  0.42836492    -0.89300
H1192       H  0.81189290  0.86198461  0.38215272     0.18400
H1193       H  0.71168947  0.92298509  0.40595026     0.18400
N1194       N  0.70298288  0.88110413  0.36045214    -0.88300
H1195       H  0.83849269  0.89248290  0.41995290     0.35800
H1196       H  0.81593206  0.90059690  0.45258781     0.40900
H1197       H  0.69472081  0.85777153  0.36485421     0.40500
H1198       H  0.70635490  0.88479570  0.33571731     0.35400
C1199       C  0.71457311  0.62437815  0.10463500    -0.26400
C1200       C  0.73761115  0.62669985  0.12954307    -0.14400
C1201       C  0.76307219  0.60381816  0.13023630     0.36200
C1202       C  0.76534934  0.58008000  0.10622127    -0.25800
C1203       C  0.74257683  0.57797106  0.08132451    -0.15100
C1204       C  0.71674720  0.60024203  0.08064812     0.37300
N1205       N  0.69307456  0.59845554  0.05535381    -0.89300
H1206       H  0.69511839  0.64178708  0.10348050     0.18400
H1207       H  0.78526912  0.56314633  0.10695715     0.18400
N1208       N  0.78685371  0.60438408  0.15533636    -0.88300
H1209       H  0.67584012  0.61669283  0.05799751     0.35800
H1210       H  0.68084393  0.57662554  0.05788581     0.40900
H1211       H  0.80956685  0.60703157  0.14460675     0.40500
H1212       H  0.78638271  0.58218250  0.16718654     0.35400
C1213       C  0.87131704  0.74721859  0.39136460    -0.26400
C1214       C  0.86725164  0.72328026  0.36771789    -0.14400
C1215       C  0.88982153  0.69741027  0.36653063     0.36200
C1216       C  0.91504940  0.69599727  0.38925610    -0.25800
C1217       C  0.91861481  0.71991091  0.41272294    -0.15100
C1218       C  0.89682403  0.74587357  0.41348167     0.37300
N1219       N  0.90078948  0.77112454  0.43668914    -0.89300
H1220       H  0.85490519  0.76750568  0.39252740     0.18400
H1221       H  0.93191092  0.67603764  0.38887400     0.18400
N1222       N  0.88771552  0.67302556  0.34200511    -0.88300
H1223       H  0.87970320  0.77252593  0.45053044     0.35800
H1224       H  0.90340650  0.79281444  0.42418926     0.40900
H1225       H  0.86740310  0.65899747  0.34710963     0.40500
H1226       H  0.90757336  0.65749431  0.34310736     0.35400
C1227       C  0.38345897  0.88470751  0.24005286    -0.26400
C1228       C  0.36571733  0.87532568  0.26749560    -0.14400
C1229       C  0.37186862  0.89125051  0.29719239     0.36200
C1230       C  0.39527190  0.91566198  0.29873303    -0.25800
C1231       C  0.41291300  0.92450720  0.27132970    -0.15100
C1232       C  0.40688723  0.90901547  0.24181091     0.37300
N1233       N  0.42474749  0.91788429  0.21356740    -0.89300
H1234       H  0.37913821  0.87327491  0.21695605     0.18400
H1235       H  0.40015039  0.92737428  0.32158934     0.18400
N1236       N  0.35470648  0.88272506  0.32598434    -0.88300
H1237       H  0.40828882  0.92532380  0.19595068     0.35800
H1238       H  0.43663811  0.89739285  0.20497129     0.40900
H1239       H  0.34284177  0.90325161  0.33455096     0.40500
H1240       H  0.37156488  0.87561699  0.34336159     0.35400
C1241       C  0.64658735  0.09799382  0.27472724    -0.26400
C1242       C  0.64900050  0.11512414  0.24549041    -0.14400
C1243       C  0.62562015  0.10955340  0.22130391     0.36200
C1244       C  0.60011618  0.08789830  0.22706889    -0.25800
C1245       C  0.59723866  0.07181549  0.25672473    -0.15100
C1246       C  0.62095156  0.07685880  0.28067792     0.37300
N1247       N  0.61888480  0.06182933  0.31173326    -0.89300
H1248       H  0.66387028  0.10223535  0.29389862     0.18400
H1249       H  0.58220736  0.08389919  0.20843334     0.18400
N1250       N  0.62761458  0.12578030  0.19088603    -0.88300
H1251       H  0.61958947  0.03689502  0.30869011     0.35800
H1252       H  0.59672706  0.06801601  0.32215642     0.40900
H1253       H  0.60622459  0.13876137  0.18756618     0.40500
H1254       H  0.62899379  0.10836127  0.17272398     0.35400
C1255       C  0.57440883  0.88159975  0.25690923    -0.26400
C1256       C  0.57796594  0.90603954  0.27998621    -0.14400
C1257       C  0.60151896  0.90242657  0.30436670     0.36200
C1258       C  0.62203713  0.87556134  0.30410976    -0.25800
C1259       C  0.61978587  0.85178680  0.27993264    -0.15100
C1260       C  0.59474747  0.85441636  0.25672968     0.37300
N1261       N  0.59028902  0.82983751  0.23272217    -0.89300
H1262       H  0.55579356  0.88398695  0.23868716     0.18400
H1263       H  0.64071655  0.87402590  0.32234365     0.18400
N1264       N  0.60508701  0.92561219  0.32970844    -0.88300
H1265       H  0.57126478  0.83576036  0.21720770     0.35800
H1266       H  0.58344380  0.80881152  0.24473607     0.40900
H1267       H  0.58289829  0.92794613  0.34156627     0.40500
H1268       H  0.61110710  0.94780561  0.31958907     0.35400
C1269       C  0.61696214  0.24164140  0.87709899    -0.26400
C1270       C  0.63597247  0.26891711  0.87052773    -0.14400
C1271       C  0.63273794  0.29626880  0.89080080     0.36200
C1272       C  0.61009364  0.29600491  0.91612328    -0.25800
C1273       C  0.59085796  0.26889703  0.92182344    -0.15100
C1274       C  0.59469164  0.24138418  0.90235822     0.37300
N1275       N  0.57609085  0.21283364  0.90772241    -0.89300
H1276       H  0.61932028  0.22010717  0.86255035     0.18400
H1277       H  0.60710725  0.31722359  0.93104927     0.18400
N1278       N  0.65219921  0.32433965  0.88593601    -0.88300
H1279       H  0.55161304  0.21847881  0.90522695     0.35800
H1280       H  0.58011857  0.20509192  0.93138888     0.40900
H1281       H  0.66517322  0.32868110  0.90714007     0.40500
H1282       H  0.63680163  0.34391722  0.88206248     0.35400
C1283       C  0.88526173  0.42352266  0.74641770    -0.26400
C1284       C  0.90777442  0.42455583  0.72121322    -0.14400
C1285       C  0.90464785  0.40284194  0.69521801     0.36200
C1286       C  0.87979144  0.37967399  0.69565488    -0.25800
C1287       C  0.85784720  0.37774146  0.72157304    -0.15100
C1288       C  0.86038527  0.40064685  0.74679215     0.37300
N1289       N  0.83833249  0.40043333  0.77341425    -0.89300
H1290       H  0.88744808  0.44022518  0.76639724     0.18400
H1291       H  0.87830211  0.36239485  0.67613841     0.18400
N1292       N  0.92724393  0.40394282  0.66889562    -0.88300
H1293       H  0.82719870  0.42298931  0.77470957     0.35800
H1294       H  0.85187884  0.39714610  0.79440341     0.40900
H1295       H  0.92425996  0.42606078  0.65726828     0.40500
H1296       H  0.92192935  0.38613290  0.65188104     0.35400
C1297       C  0.75408522  0.12949656  0.61203383    -0.26400
C1298       C  0.72379532  0.13994889  0.62351145    -0.14400
C1299       C  0.69556795  0.12429615  0.61216146     0.36200
C1300       C  0.69836878  0.09919817  0.58965760    -0.25800
C1301       C  0.72875686  0.08885855  0.57875135    -0.15100
C1302       C  0.75684429  0.10405937  0.59007328     0.37300
N1303       N  0.78813249  0.09290847  0.57985716    -0.89300
H1304       H  0.77600726  0.14057952  0.62096097     0.18400
H1305       H  0.67676112  0.08738183  0.58089951     0.18400
N1306       N  0.66388367  0.13331077  0.62272803    -0.88300
H1307       H  0.80644988  0.10607589  0.59107100     0.35800
H1308       H  0.79015558  0.09729833  0.55507661     0.40900
H1309       H  0.66072385  0.15791861  0.61858375     0.40500
H1310       H  0.66191027  0.12873812  0.64743818     0.35400
C1311       C  0.79714643  0.40550312  0.89767927    -0.26400
C1312       C  0.76820086  0.41075165  0.91437563    -0.14400
C1313       C  0.74187550  0.38993208  0.90936539     0.36200
C1314       C  0.74460773  0.36490778  0.88712235    -0.25800
C1315       C  0.77316412  0.36009957  0.86919155    -0.15100
C1316       C  0.79991247  0.38035163  0.87519106     0.37300
N1317       N  0.82990464  0.37564019  0.85867319    -0.89300
H1318       H  0.81767130  0.42103827  0.90214250     0.18400
H1319       H  0.72365514  0.34981881  0.88316700     0.18400
N1320       N  0.71189415  0.39406196  0.92617786    -0.88300
H1321       H  0.84769844  0.37108400  0.87597795     0.35800
H1322       H  0.83579642  0.39727117  0.84728377     0.40900
H1323       H  0.70313561  0.41714786  0.92128201     0.40500
H1324       H  0.71625483  0.39226036  0.95095593     0.35400
C1325       C  0.61522355  0.12404599  0.79889149    -0.26400
C1326       C  0.63613818  0.12554082  0.77202485    -0.14400
C1327       C  0.63323464  0.10150151  0.74796893     0.36200
C1328       C  0.60911536  0.07780195  0.75044728    -0.25800
C1329       C  0.58744153  0.07724871  0.77649483    -0.15100
C1330       C  0.59098393  0.10025399  0.80132825     0.37300
N1331       N  0.56945448  0.09973420  0.82856099    -0.89300
H1332       H  0.61705743  0.14209963  0.81766136     0.18400
H1333       H  0.60675523  0.06012647  0.73136251     0.18400
N1334       N  0.65445139  0.10111533  0.72064735    -0.88300
H1335       H  0.57497391  0.11841505  0.84461385     0.35800
H1336       H  0.57341675  0.07825072  0.84097059     0.40900
H1337       H  0.64037129  0.10280495  0.69977646     0.40500
H1338       H  0.66641752  0.07895596  0.72023583     0.35400
C1339       C  0.38512616  0.27210268  0.07583685    -0.26400
C1340       C  0.40942213  0.24877670  0.07342519    -0.14400
C1341       C  0.40819430  0.22143559  0.09351677     0.36200
C1342       C  0.38340488  0.21867182  0.11668038    -0.25800
C1343       C  0.35962223  0.24269537  0.12016839    -0.15100
C1344       C  0.36030803  0.26935265  0.09877065     0.37300
N1345       N  0.33626489  0.29412532  0.10045813    -0.89300
H1346       H  0.38583109  0.29300826  0.06021490     0.18400
H1347       H  0.38335138  0.19811226  0.13273933     0.18400
N1348       N  0.43257518  0.19694387  0.09071201    -0.88300
H1349       H  0.32494915  0.29570832  0.07795960     0.35800
H1350       H  0.34790500  0.31599675  0.10490353     0.40900
H1351       H  0.43038502  0.18663906  0.06778316     0.40500
H1352       H  0.42848891  0.17853470  0.10739722     0.35400
C1353       C  0.07458780  0.38884387  0.26055340    -0.26400
C1354       C  0.07515343  0.41203874  0.23590955    -0.14400
C1355       C  0.09784182  0.40872176  0.21076835     0.36200
C1356       C  0.12059016  0.38363058  0.21158924    -0.25800
C1357       C  0.12118516  0.36116807  0.23705216    -0.15100
C1358       C  0.09711358  0.36343487  0.26123581     0.37300
N1359       N  0.09540090  0.34015896  0.28664367    -0.89300
H1360       H  0.05684495  0.39077638  0.27970977     0.18400
H1361       H  0.13848442  0.38241510  0.19252780     0.18400
N1362       N  0.09801749  0.43103471  0.18442987    -0.88300
H1363       H  0.07258180  0.32942623  0.28587896     0.35800
H1364       H  0.09749056  0.35233408  0.30862566     0.40900
H1365       H  0.09481743  0.41804501  0.16305564     0.40500
H1366       H  0.12077374  0.44188706  0.18353656     0.35400
C1367       C  0.22248277  0.13492006  0.39173900    -0.26400
C1368       C  0.24181032  0.12983627  0.36421517    -0.14400
C1369       C  0.26220212  0.10260242  0.36303129     0.36200
C1370       C  0.26289502  0.08136666  0.38936624    -0.25800
C1371       C  0.24336081  0.08637661  0.41665386    -0.15100
C1372       C  0.22294646  0.11364949  0.41791168     0.37300
N1373       N  0.20194211  0.12031166  0.44478808    -0.89300
H1374       H  0.20707816  0.15597307  0.39325740     0.18400
H1375       H  0.27834521  0.06031242  0.38844821     0.18400
N1376       N  0.28192465  0.09641961  0.33512186    -0.88300
H1377       H  0.21017808  0.14137225  0.45584409     0.35800
H1378       H  0.20263944  0.10220358  0.46218585     0.40900
H1379       H  0.26642055  0.09188094  0.31574341     0.40500
H1380       H  0.29573922  0.07559291  0.33836954     0.35400
C1381       C  0.23044801  0.42011238  0.11019161    -0.26400
C1382       C  0.25485886  0.42123293  0.08680383    -0.14400
C1383       C  0.28184611  0.40055508  0.08959683     0.36200
C1384       C  0.28341415  0.37892734  0.11550684    -0.25800
C1385       C  0.25863598  0.37709088  0.13874508    -0.15100
C1386       C  0.23198913  0.39847017  0.13619556     0.37300
N1387       N  0.20644195  0.39813343  0.15975346    -0.89300
H1388       H  0.21017009  0.43651368  0.10821238     0.18400
H1389       H  0.30396948  0.36283643  0.11689497     0.18400
N1390       N  0.30819065  0.40096262  0.06692674    -0.88300
H1391       H  0.18836135  0.41465690  0.15374299     0.35800
H1392       H  0.21623959  0.40584050  0.18168699     0.40900
H1393       H  0.30484069  0.41814389  0.04887351     0.40500
H1394       H  0.30872567  0.37858059  0.05543086     0.35400
C1395       C  0.42372408  0.10832551  0.23857545    -0.26400
C1396       C  0.42921705  0.09245796  0.26795640    -0.14400
C1397       C  0.41081436  0.10155617  0.29531376     0.36200
C1398       C  0.38711839  0.12560916  0.29234027    -0.25800
C1399       C  0.38094570  0.14129001  0.26279604    -0.15100
C1400       C  0.39990034  0.13250220  0.23555443     0.37300
N1401       N  0.39429910  0.14712393  0.20460674    -0.89300
H1402       H  0.43759392  0.10110981  0.21758609     0.18400
H1403       H  0.37294775  0.13159094  0.31351099     0.18400
N1404       N  0.41485123  0.08647683  0.32630692    -0.88300
H1405       H  0.40882130  0.13650311  0.18688439     0.35800
H1406       H  0.40165413  0.17111846  0.20619910     0.40900
H1407       H  0.43334091  0.06940455  0.32602699     0.40500
H1408       H  0.42203720  0.10428118  0.34260975     0.35400
C1409       C  0.90241640  0.27094015  0.36645991    -0.26400
C1410       C  0.88559145  0.24310380  0.35691702    -0.14400
C1411       C  0.89228698  0.21389916  0.37292562     0.36200
C1412       C  0.91443850  0.21319538  0.39860624    -0.25800
C1413       C  0.93032969  0.24115879  0.40884805    -0.15100
C1414       C  0.92444058  0.27044813  0.39232304     0.37300
N1415       N  0.93984526  0.30013421  0.40130050    -0.89300
H1416       H  0.89752485  0.29364025  0.35454821     0.18400
H1417       H  0.91908880  0.19063043  0.41086585     0.18400
N1418       N  0.87682183  0.18474596  0.36305824    -0.88300
H1419       H  0.92179936  0.31595025  0.40910241     0.35800
H1420       H  0.95558161  0.29708466  0.42071897     0.40900
H1421       H  0.86470636  0.17538837  0.38308239     0.40500
H1422       H  0.89476599  0.16831632  0.35639704     0.35400
C1423       C  0.07290885  0.24388855  0.61687278    -0.26400
C1424       C  0.07665710  0.21878592  0.59466633    -0.14400
C1425       C  0.10088064  0.19551453  0.59958743     0.36200
C1426       C  0.12182251  0.19860474  0.62616196    -0.25800
C1427       C  0.11908056  0.22464220  0.64783086    -0.15100
C1428       C  0.09388367  0.24719918  0.64317505     0.37300
N1429       N  0.09036784  0.27449401  0.66400852    -0.89300
H1430       H  0.05426196  0.26180849  0.61302098     0.18400
H1431       H  0.14098279  0.18111805  0.62934531     0.18400
N1432       N  0.10464215  0.16945610  0.57708411    -0.88300
H1433       H  0.06710992  0.27400569  0.67386325     0.35800
H1434       H  0.09245967  0.29530636  0.64999744     0.40900
H1435       H  0.08373035  0.15537228  0.57831855     0.40500
H1436       H  0.12385116  0.15463589  0.58388465     0.35400
C1437       C  0.91192088  0.25290032  0.59562946    -0.26400
C1438       C  0.91326544  0.22507338  0.57667288    -0.14400
C1439       C  0.89075589  0.20024837  0.58208396     0.36200
C1440       C  0.86725091  0.20381292  0.60623130    -0.25800
C1441       C  0.86552309  0.23190044  0.62532794    -0.15100
C1442       C  0.88837572  0.25665897  0.61970541     0.37300
N1443       N  0.88789519  0.28579809  0.63817351    -0.89300
H1444       H  0.92937717  0.27192436  0.59167763     0.18400
H1445       H  0.85005981  0.18450211  0.60979775     0.18400
N1446       N  0.89141184  0.17118379  0.56351992    -0.88300
H1447       H  0.88501774  0.30508855  0.62223294     0.35800
H1448       H  0.91029863  0.28828921  0.64953994     0.40900
H1449       H  0.88855809  0.17716581  0.53918103     0.40500
H1450       H  0.91407726  0.16045161  0.56639089     0.35400
C1451       C  0.14823109  0.23801629  0.40408120    -0.26400
C1452       C  0.14444671  0.26308007  0.38149200    -0.14400
C1453       C  0.11709773  0.28334490  0.38424470     0.36200
C1454       C  0.09391655  0.27747774  0.40833538    -0.25800
C1455       C  0.09678980  0.25117702  0.42941067    -0.15100
C1456       C  0.12455585  0.23162570  0.42749731     0.37300
N1457       N  0.12815934  0.20435776  0.44833223    -0.89300
H1458       H  0.16895596  0.22213124  0.40264708     0.18400
H1459       H  0.07272015  0.29275816  0.40967386     0.18400
N1460       N  0.11170339  0.30886806  0.36167962    -0.88300
H1461       H  0.13025944  0.18378673  0.43395990     0.35800
H1462       H  0.14972957  0.20706095  0.46116907     0.40900
H1463       H  0.10968207  0.33038693  0.37460042     0.40500
H1464       H  0.08965559  0.30464193  0.35013976     0.35400
loop_ 
_geom_bond_atom_site_label_1 
_geom_bond_atom_site_label_2 
_geom_bond_distance 
_geom_bond_site_symmetry_2 
_ccdc_geom_bond_type 
N1            C6   1.352   1_655  A
N1            C5   1.351       .  A
N1           H33   1.037   1_655  S
N2            C9   1.352       .  A
N2           C10   1.352       .  A
N3            C8   1.354       .  A
N3            C7   1.356   1_455  A
N3           H34   1.038       .  S
N4           C11   1.353       .  A
N4           C12   1.353       .  A
C5           C13   1.387       .  A
C5           C21   1.414       .  A
C6           C22   1.414       .  A
C6           C14   1.387       .  A
C7           C15   1.386       .  A
C7           C24   1.417       .  A
C8           C23   1.420       .  A
C8           C16   1.387       .  A
C9           C21   1.416       .  A
C9           C17   1.386       .  A
C10          C24   1.414       .  A
C10          C18   1.386       .  A
C11          C19   1.386       .  A
C11          C22   1.416       .  A
C12          C20   1.386       .  A
C12          C23   1.415       .  A
C13          C14   1.376   1_655  A
C13          H25   1.082       .  S
C14          H26   1.083       .  S
C15          C16   1.377   1_655  A
C15          H27   1.082       .  S
C16          H28   1.082       .  S
C17          C18   1.376       .  A
C17          H29   1.082       .  S
C18          H30   1.082       .  S
C19          C20   1.373       .  A
C19          H31   1.082       .  S
C20          H32   1.082       .  S
C21        C1438   1.487       .  S
C22        C1424   1.487       .  S
C23        C1455   1.498       .  S
C24        C1413   1.495       .  S
O35         Mg37   2.158       .  S
O35         Mg43   2.162       .  S
O35          C70   1.235       .  S
C36          H75   1.081       .  S
C36          O49   1.233       .  S
C36          O73   1.268       .  A
Mg37         O66   2.166       .  S
Mg37         O81   2.282       .  S
Mg37         O77   2.271       .  S
Mg37         O48   2.289       .  S
O38         Mg80   2.168       .  S
O38         Mg63   2.162       .  S
O38          C59   1.237       .  S
O39          C70   1.270       .  A
O39         Mg63   2.303       .  S
C40        C1452   1.494       .  S
C40          O42   1.274       .  A
C40          O54   1.275       .  A
O41          C69   1.270       .  A
O41         Mg43   2.297       .  S
O42         Mg74   2.284       .  S
Mg43         O49   2.150       .  S
Mg43         O57   2.275       .  S
Mg43         O45   2.293       .  S
C44        C1368   1.483       .  S
C44          O82   1.269       .  A
C44          O50   1.274       .  A
O45          C52   1.274       .  A
H46          C59   1.081       .  S
C47          H72   1.081       .  S
C47          O61   1.235       .  S
C47          O62   1.271       .  A
O48          C71   1.267       .  A
O49         Mg63   2.165       .  S
O50         Mg80   2.303       .  S
C51        C1399   1.506       .  S
C51          O64   1.275       .  A
C51          O56   1.279       .  A
C52        C1343   1.497       .  S
C52          O79   1.277       .  A
Mg53         O60   2.134       .  S
Mg53         O61   2.155       .  S
Mg53         O54   2.300       .  S
Mg53         O55   2.305       .  S
Mg53         O82   2.242       .  S
O55          C59   1.272       .  A
O56         Mg63   2.334       .  S
O57          C76   1.273       .  A
O58          C78   1.278       .  A
O58         Mg74   2.327       .  S
O60         Mg74   2.154       .  S
O60          C71   1.233       .  S
O61         Mg80   2.169       .  S
O62         Mg74   2.310       .  S
Mg63         O79   2.294       .  S
O64         Mg80   2.282       .  S
H65          C70   1.081       .  S
O66         Mg74   2.149       .  S
O66          C69   1.236       .  S
H67          C69   1.081       .  S
H68          C71   1.081       .  S
O73         Mg80   2.293       .  S
C76        C1385   1.492       .  S
C76          O81   1.272       .  A
O77          C78   1.274       .  A
C78        C1357   1.497       .  S
O83         Mg85   2.155       .  S
O83         Mg91   2.150       .  S
O83         C118   1.237       .  S
C84         H123   1.081       .  S
C84          O97   1.233       .  S
C84         O121   1.267       .  A
Mg85        O114   2.159       .  S
Mg85        O129   2.310       .  S
Mg85        O125   2.291       .  S
Mg85         O96   2.299       .  S
O86        Mg128   2.173       .  S
O86        Mg111   2.152       .  S
O86         C107   1.236       .  S
O87         C118   1.273       .  A
O87        Mg111   2.315       .  S
C88        C1315   1.487       .  S
C88          O90   1.270       .  A
C88         O102   1.271       .  A
O89         C117   1.269       .  A
O89         Mg91   2.294       .  S
O90        Mg122   2.273       .  S
Mg91         O97   2.155       .  S
Mg91        O105   2.277       .  S
Mg91         O93   2.282       .  S
C92        C1270   1.490       .  S
C92         O130   1.268       .  A
C92          O98   1.276       .  A
O93         C100   1.274       .  A
H94         C107   1.081       .  S
C95         H120   1.081       .  S
C95         O109   1.236       .  S
C95         O110   1.271       .  A
O96         C119   1.269       .  A
O97        Mg111   2.150       .  S
O98        Mg128   2.300       .  S
C99        C1326   1.503       .  S
C99         O112   1.275       .  A
C99         O104   1.279       .  A
C100       C1298   1.487       .  S
C100        O127   1.272       .  A
Mg101       O108   2.144       .  S
Mg101       O109   2.153       .  S
Mg101       O102   2.275       .  S
Mg101       O103   2.299       .  S
Mg101       O130   2.252       .  S
O103        C107   1.270       .  A
O104       Mg111   2.329       .  S
O105        C124   1.273       .  A
O106        C126   1.273       .  A
O106       Mg122   2.290       .  S
O108       Mg122   2.148       .  S
O108        C119   1.235       .  S
O109       Mg128   2.149       .  S
O110       Mg122   2.306       .  S
Mg111       O127   2.280       .  S
O112       Mg128   2.288       .  S
H113        C118   1.081       .  S
O114       Mg122   2.141       .  S
O114        C117   1.235       .  S
H115        C117   1.081       .  S
H116        C119   1.081       .  S
O121       Mg128   2.295       .  S
C124       C1441   1.496       .  S
C124        O129   1.276       .  A
O125        C126   1.275       .  A
C126       C1287   1.496       .  S
N131        C136   1.355       .  A
N131        C135   1.358       .  A
N131        H163   1.034       .  S
N132        C139   1.353       .  A
N132        C140   1.353   1_545  A
N133        C138   1.355       .  A
N133        C137   1.352       .  A
N133        H164   1.036       .  S
N134        C141   1.352   1_565  A
N134        C142   1.354       .  A
C135        C143   1.387       .  A
C135        C151   1.423       .  A
C136        C152   1.422       .  A
C136        C144   1.387       .  A
C137        C145   1.387       .  A
C137        C154   1.414       .  A
C138        C153   1.416       .  A
C138        C146   1.386       .  A
C139        C151   1.419       .  A
C139        C147   1.387       .  A
C140        C154   1.416       .  A
C140        C148   1.386       .  A
C141        C149   1.387       .  A
C141        C152   1.417       .  A
C142        C150   1.385       .  A
C142        C153   1.416       .  A
C143        C144   1.381       .  A
C143        H155   1.082       .  S
C144        H156   1.082       .  S
C145        C146   1.375       .  A
C145        H157   1.082       .  S
C146        H158   1.082       .  S
C147        C148   1.375   1_545  A
C147        H159   1.082       .  S
C148        H160   1.082       .  S
C149        C150   1.374   1_545  A
C149        H161   1.082       .  S
C150        H162   1.082       .  S
C151       C1396   1.500       .  S
C152       C1245   1.494       .  S
C153       C1256   1.497       .  S
C154       C1231   1.486       .  S
O165       Mg167   2.153       .  S
O165       Mg173   2.147       .  S
O165        C200   1.234       .  S
C166        H205   1.081       .  S
C166        O179   1.234       .  S
C166        O203   1.268       .  A
Mg167       O196   2.166       .  S
Mg167       O211   2.311       .  S
Mg167       O207   2.257       .  S
Mg167       O178   2.296       .  S
O168       Mg210   2.166       .  S
O168       Mg193   2.162       .  S
O168        C189   1.236       .  S
O169        C200   1.269       .  A
O169       Mg193   2.299       .  S
C170       C1200   1.502       .  S
C170        O172   1.280       .  A
C170        O184   1.274       .  A
O171        C199   1.274       .  A
O171       Mg173   2.317       .  S
O172       Mg204   2.329       .  S
Mg173       O179   2.135       .  S
Mg173       O187   2.272       .  S
Mg173       O175   2.302       .  S
C174       C1172   1.486       .  S
C174        O212   1.272       .  A
C174        O180   1.272       .  A
O175        C182   1.274       .  A
H176        C189   1.081       .  S
C177        H202   1.081       .  S
C177        O191   1.234       .  S
C177        O192   1.268       .  A
O178        C201   1.269       .  A
O179       Mg193   2.170       .  S
O180       Mg210   2.278       .  S
C181       C1214   1.493       .  S
C181        O194   1.269       .  A
C181        O186   1.279       .  A
C182       C1186   1.508       .  S
C182        O209   1.279       .  A
Mg183       O190   2.141       .  S
Mg183       O191   2.162       .  S
Mg183       O184   2.292       .  S
Mg183       O185   2.298       .  S
Mg183       O212   2.275       .  S
O185        C189   1.270       .  A
O186       Mg193   2.318       .  S
O187        C206   1.272       .  A
O188        C208   1.277       .  A
O188       Mg204   2.311       .  S
O190       Mg204   2.166       .  S
O190        C201   1.235       .  S
O191       Mg210   2.149       .  S
O192       Mg204   2.298       .  S
Mg193       O209   2.318       .  S
O194       Mg210   2.247       .  S
H195        C200   1.081       .  S
O196       Mg204   2.184       .  S
O196        C199   1.238       .  S
H197        C199   1.081       .  S
H198        C201   1.081       .  S
O203       Mg210   2.290       .  S
C206       C1259   1.497       .  S
C206        O211   1.275       .  A
O207        C208   1.272       .  A
C208       C1158   1.493       .  S
N213        C218   1.351       .  A
N213        C217   1.349       .  A
N213        H245   1.039       .  S
N214        C221   1.354   1_455  A
N214        C222   1.352       .  A
N215        C220   1.355       .  A
N215        C219   1.354       .  A
N215        H246   1.037       .  S
N216        C223   1.353       .  A
N216        C224   1.351   1_655  A
C217        C225   1.387       .  A
C217        C233   1.410       .  A
C218        C234   1.410       .  A
C218        C226   1.387       .  A
C219        C227   1.387       .  A
C219        C236   1.419       .  A
C220        C235   1.421       .  A
C220        C228   1.387       .  A
C221        C233   1.414       .  A
C221        C229   1.385       .  A
C222        C236   1.417       .  A
C222        C230   1.387       .  A
C223        C231   1.384       .  A
C223        C234   1.413       .  A
C224        C232   1.388       .  A
C224        C235   1.417       .  A
C225        C226   1.373       .  A
C225        H237   1.082       .  S
C226        H238   1.082       .  S
C227        C228   1.378       .  A
C227        H239   1.083       .  S
C228        H240   1.082       .  S
C229        C230   1.373   1_655  A
C229        H241   1.082       .  S
C230        H242   1.082       .  S
C231        C232   1.373   1_655  A
C231        H243   1.082       .  S
C232        H244   1.082       .  S
C233       C1217   1.487       .  S
C234       C1130   1.486       .  S
C235       C1144   1.495       .  S
C236       C1116   1.490       .  S
O247       Mg249   2.164       .  S
O247       Mg255   2.144       .  S
O247        C282   1.235       .  S
C248        H287   1.081       .  S
C248        O261   1.234       .  S
C248        O285   1.269       .  A
Mg249       O278   2.169       .  S
Mg249       O293   2.303       .  S
Mg249       O289   2.283       .  S
Mg249       O260   2.290       .  S
O250       Mg292   2.171       .  S
O250       Mg275   2.157       .  S
O250        C271   1.237       .  S
O251        C282   1.271       .  A
O251       Mg275   2.310       .  S
C252       C1147   1.491       .  S
C252        O254   1.277       .  A
C252        O266   1.272       .  A
O253        C281   1.271       .  A
O253       Mg255   2.303       .  S
O254       Mg286   2.299       .  S
Mg255       O261   2.138       .  S
Mg255       O269   2.248       .  S
Mg255       O257   2.296       .  S
C256       C1060   1.490       .  S
C256        O294   1.270       .  A
C256        O262   1.274       .  A
O257        C264   1.274       .  A
H258        C271   1.081       .  S
C259        H284   1.081       .  S
C259        O273   1.234       .  S
C259        O274   1.268       .  A
O260        C283   1.268       .  A
O261       Mg275   2.151       .  S
O262       Mg292   2.306       .  S
C263       C1088   1.489       .  S
C263        O276   1.270       .  A
C263        O268   1.277       .  A
C264       C1046   1.495       .  S
C264        O291   1.274       .  A
Mg265       O272   2.131       .  S
Mg265       O273   2.149       .  S
Mg265       O266   2.280       .  S
Mg265       O267   2.298       .  S
Mg265       O294   2.250       .  S
O267        C271   1.270       .  A
O268       Mg275   2.308       .  S
O269        C288   1.270       .  A
O270        C290   1.275       .  A
O270       Mg286   2.298       .  S
O272       Mg286   2.160       .  S
O272        C283   1.234       .  S
O273       Mg292   2.141       .  S
O274       Mg286   2.297       .  S
Mg275       O291   2.289       .  S
O276       Mg292   2.252       .  S
H277        C282   1.081       .  S
O278       Mg286   2.159       .  S
O278        C281   1.237       .  S
H279        C281   1.081       .  S
H280        C283   1.081       .  S
O285       Mg292   2.298       .  S
C288       C1102   1.491       .  S
C288        O293   1.274       .  A
O289        C290   1.275       .  A
C290       C1074   1.498       .  S
N295        C300   1.352       .  A
N295        C299   1.355       .  A
N295        H327   1.040       .  S
N296        C303   1.351   1_545  A
N296        C304   1.348       .  A
N297        C302   1.356       .  A
N297        C301   1.356       .  A
N297        H328   1.039       .  S
N298        C305   1.353       .  A
N298        C306   1.355   1_565  A
C299        C307   1.385       .  A
C299        C315   1.414       .  A
C300        C316   1.419       .  A
C300        C308   1.389       .  A
C301        C309   1.386       .  A
C301        C318   1.419       .  A
C302        C317   1.421       .  A
C302        C310   1.387       .  A
C303        C315   1.409       .  A
C303        C311   1.386       .  A
C304        C318   1.410       .  A
C304        C312   1.388       .  A
C305        C313   1.387       .  A
C305        C316   1.419       .  A
C306        C314   1.385       .  A
C306        C317   1.418       .  A
C307        C308   1.378       .  A
C307        H319   1.082       .  S
C308        H320   1.082       .  S
C309        C310   1.379       .  A
C309        H321   1.082       .  S
C310        H322   1.082       .  S
C311        C312   1.369   1_565  A
C311        H323   1.082       .  S
C312        H324   1.082       .  S
C313        C314   1.376   1_565  A
C313        H325   1.082       .  S
C314        H326   1.082       .  S
C315       C1105   1.487       .  S
C316       C1032   1.496       .  S
C317       C1329   1.503       .  S
C318       C1018   1.486       .  S
N329        C334   1.350   1_554  A
N329        C333   1.354       .  A
N329        H361   1.038       .  S
N330        C337   1.351       .  A
N330        C338   1.349       .  A
N331        C336   1.355   1_554  A
N331        C335   1.355       .  A
N331        H362   1.036       .  S
N332        C339   1.354       .  A
N332        C340   1.356       .  A
C333        C341   1.386       .  A
C333        C349   1.414       .  A
C334        C350   1.414       .  A
C334        C342   1.388       .  A
C335        C343   1.387       .  A
C335        C352   1.419       .  A
C336        C351   1.420       .  A
C336        C344   1.387       .  A
C337        C349   1.410       .  A
C337        C345   1.385       .  A
C338        C352   1.411       .  A
C338        C346   1.387       .  A
C339        C347   1.386       .  A
C339        C350   1.418       .  A
C340        C348   1.386       .  A
C340        C351   1.421       .  A
C341        C342   1.376   1_554  A
C341        H353   1.082       .  S
C342        H354   1.083       .  S
C343        C344   1.379   1_554  A
C343        H355   1.082       .  S
C344        H356   1.082       .  S
C345        C346   1.371       .  A
C345        H357   1.082       .  S
C346        H358   1.082       .  S
C347        C348   1.377       .  A
C347        H359   1.082       .  S
C348        H360   1.082       .  S
C349       C1004   1.488       .  S
C350       C1091   1.488       .  S
C351        C993   1.505       .  S
C352       C1382   1.486       .  S
N363        C368   1.351   1_556  A
N363        C367   1.350       .  A
N363        H395   1.040       .  S
N364        C371   1.353       .  A
N364        C372   1.352       .  A
N365        C370   1.356   1_556  A
N365        C369   1.357       .  A
N365        H396   1.041       .  S
N366        C373   1.355       .  A
N366        C374   1.354       .  A
C367        C375   1.388       .  A
C367        C383   1.411       .  A
C368        C384   1.411       .  A
C368        C376   1.388       .  A
C369        C377   1.386       .  A
C369        C386   1.421       .  A
C370        C385   1.422       .  A
C370        C378   1.387       .  A
C371        C383   1.414       .  A
C371        C379   1.385       .  A
C372        C386   1.417       .  A
C372        C380   1.387       .  A
C373        C381   1.385       .  A
C373        C384   1.417       .  A
C374        C382   1.388       .  A
C374        C385   1.421       .  A
C375        C376   1.372   1_556  A
C375        H387   1.082       .  S
C376        H388   1.082       .  S
C377        C378   1.377   1_556  A
C377        H389   1.082       .  S
C378        H390   1.082       .  S
C379        C380   1.373       .  A
C379        H391   1.082       .  S
C380        H392   1.082       .  S
C381        C382   1.375       .  A
C381        H393   1.082       .  S
C382        H394   1.082       .  S
C383       C1312   1.482       .  S
C384        C962   1.488       .  S
C385       C1203   1.503       .  S
C386        C976   1.498       .  S
O397       Mg399   2.153       .  S
O397       Mg405   2.156       .  S
O397        C432   1.235       .  S
C398        H437   1.081       .  S
C398        O411   1.234       .  S
C398        O435   1.268       .  A
Mg399       O428   2.155       .  S
Mg399       O443   2.325       .  S
Mg399       O439   2.250       .  S
Mg399       O410   2.302       .  S
O400       Mg442   2.163       .  S
O400       Mg425   2.146       .  S
O400        C421   1.235       .  S
O401        C432   1.271       .  A
O401       Mg425   2.309       .  S
C402       C1133   1.487       .  S
C402        O404   1.275       .  A
C402        O416   1.271       .  A
O403        C431   1.269       .  A
O403       Mg405   2.302       .  S
O404       Mg436   2.288       .  S
Mg405       O411   2.156       .  S
Mg405       O419   2.249       .  S
Mg405       O407   2.300       .  S
C406        C934   1.495       .  S
C406        O444   1.272       .  A
C406        O412   1.274       .  A
O407        C414   1.274       .  A
H408        C421   1.081       .  S
C409        H434   1.081       .  S
C409        O423   1.236       .  S
C409        O424   1.270       .  A
O410        C433   1.269       .  A
O411       Mg425   2.161       .  S
O412       Mg442   2.311       .  S
C413        C979   1.494       .  S
C413        O426   1.273       .  A
C413        O418   1.278       .  A
C414        C920   1.487       .  S
C414        O441   1.272       .  A
Mg415       O422   2.154       .  S
Mg415       O423   2.155       .  S
Mg415       O416   2.279       .  S
Mg415       O417   2.293       .  S
Mg415       O444   2.261       .  S
O417        C421   1.269       .  A
O418       Mg425   2.329       .  S
O419        C438   1.269       .  A
O420        C440   1.277       .  A
O420       Mg436   2.318       .  S
O422       Mg436   2.157       .  S
O422        C433   1.234       .  S
O423       Mg442   2.147       .  S
O424       Mg436   2.299       .  S
Mg425       O441   2.265       .  S
O426       Mg442   2.262       .  S
H427        C432   1.081       .  S
O428       Mg436   2.158       .  S
O428        C431   1.234       .  S
H429        C431   1.081       .  S
H430        C433   1.081       .  S
O435       Mg442   2.298       .  S
C438       C1035   1.496       .  S
C438        O443   1.277       .  A
O439        C440   1.272       .  A
C440        C951   1.481       .  S
N445        C450   1.354       .  A
N445        C449   1.357       .  A
N445        H477   1.036       .  S
N446        C453   1.352   1_545  A
N446        C454   1.352       .  A
N447        C452   1.353       .  A
N447        C451   1.349       .  A
N447        H478   1.035       .  S
N448        C455   1.349   1_545  A
N448        C456   1.352       .  A
C449        C457   1.387       .  A
C449        C465   1.419       .  A
C450        C466   1.417       .  A
C450        C458   1.387       .  A
C451        C459   1.388       .  A
C451        C468   1.411       .  A
C452        C467   1.411       .  A
C452        C460   1.386       .  A
C453        C465   1.414       .  A
C453        C461   1.386       .  A
C454        C468   1.414       .  A
C454        C462   1.386       .  A
C455        C463   1.387       .  A
C455        C466   1.412       .  A
C456        C464   1.386       .  A
C456        C467   1.411       .  A
C457        C458   1.378       .  A
C457        H469   1.082       .  S
C458        H470   1.083       .  S
C459        C460   1.373       .  A
C459        H471   1.082       .  S
C460        H472   1.082       .  S
C461        C462   1.375   1_565  A
C461        H473   1.082       .  S
C462        H474   1.082       .  S
C463        C464   1.372   1_565  A
C463        H475   1.082       .  S
C464        H476   1.082       .  S
C465       C1189   1.496       .  S
C466        C948   1.482       .  S
C467       C1301   1.485       .  S
C468        C909   1.479       .  S
O479       Mg481   2.161       .  S
O479       Mg487   2.150       .  S
O479        C514   1.234       .  S
C480        H519   1.081       .  S
C480        O493   1.234       .  S
C480        O517   1.268       .  A
Mg481       O510   2.155       .  S
Mg481       O525   2.292       .  S
Mg481       O521   2.263       .  S
Mg481       O492   2.299       .  S
O482       Mg524   2.155       .  S
O482       Mg507   2.156       .  S
O482        C503   1.236       .  S
O483        C514   1.269       .  A
O483       Mg507   2.300       .  S
C484       C1410   1.492       .  S
C484        O486   1.274       .  A
C484        O498   1.278       .  A
O485        C513   1.273       .  A
O485       Mg487   2.311       .  S
O486       Mg518   2.283       .  S
Mg487       O493   2.137       .  S
Mg487       O501   2.265       .  S
Mg487       O489   2.315       .  S
C488        C906   1.483       .  S
C488        O526   1.271       .  A
C488        O494   1.271       .  A
O489        C496   1.278       .  A
H490        C503   1.081       .  S
C491        H516   1.081       .  S
C491        O505   1.234       .  S
C491        O506   1.270       .  A
O492        C515   1.270       .  A
O493       Mg507   2.157       .  S
O494       Mg524   2.272       .  S
C495       C1242   1.491       .  S
C495        O508   1.272       .  A
C495        O500   1.277       .  A
C496        C881   1.497       .  S
C496        O523   1.274       .  A
Mg497       O504   2.145       .  S
Mg497       O505   2.161       .  S
Mg497       O498   2.328       .  S
Mg497       O499   2.307       .  S
Mg497       O526   2.268       .  S
O499        C503   1.272       .  A
O500       Mg507   2.325       .  S
O501        C520   1.271       .  A
O502        C522   1.277       .  A
O502       Mg518   2.319       .  S
O504       Mg518   2.154       .  S
O504        C515   1.236       .  S
O505       Mg524   2.171       .  S
O506       Mg518   2.307       .  S
Mg507       O523   2.276       .  S
O508       Mg524   2.268       .  S
H509        C514   1.081       .  S
O510       Mg518   2.160       .  S
O510        C513   1.237       .  S
H511        C513   1.081       .  S
H512        C515   1.081       .  S
O517       Mg524   2.293       .  S
C520        C965   1.482       .  S
C520        O525   1.272       .  A
O521        C522   1.270       .  A
C522        C892   1.500       .  S
N527        C532   1.351       .  A
N527        C531   1.352   1_455  A
N527        H559   1.039       .  S
N528        C535   1.353       .  A
N528        C536   1.352       .  A
N529        C534   1.356   1_655  A
N529        C533   1.356       .  A
N529        H560   1.040       .  S
N530        C537   1.355       .  A
N530        C538   1.353       .  A
C531        C539   1.388       .  A
C531        C547   1.413       .  A
C532        C548   1.411       .  A
C532        C540   1.387       .  A
C533        C541   1.387       .  A
C533        C550   1.421       .  A
C534        C549   1.421       .  A
C534        C542   1.387       .  A
C535        C547   1.416       .  A
C535        C543   1.385       .  A
C536        C550   1.418       .  A
C536        C544   1.387       .  A
C537        C545   1.385       .  A
C537        C548   1.416       .  A
C538        C546   1.388       .  A
C538        C549   1.420       .  A
C539        C540   1.373   1_655  A
C539        H551   1.082       .  S
C540        H552   1.082       .  S
C541        C542   1.377   1_655  A
C541        H553   1.082       .  S
C542        H554   1.082       .  S
C543        C544   1.375       .  A
C543        H555   1.082       .  S
C544        H556   1.082       .  S
C545        C546   1.376       .  A
C545        H557   1.082       .  S
C546        H558   1.082       .  S
C547       C1175   1.490       .  S
C548        C867   1.489       .  S
C549       C1354   1.500       .  S
C550        C895   1.502       .  S
O561       Mg563   2.152       .  S
O561       Mg569   2.163       .  S
O561        C596   1.237       .  S
C562        H601   1.081       .  S
C562        O575   1.235       .  S
C562        O599   1.270       .  A
Mg563       O592   2.160       .  S
Mg563       O607   2.311       .  S
Mg563       O603   2.262       .  S
Mg563       O574   2.298       .  S
O564       Mg606   2.155       .  S
O564       Mg589   2.139       .  S
O564        C585   1.234       .  S
O565        C596   1.272       .  A
O565       Mg589   2.306       .  S
C566        C850   1.489       .  S
C566        O568   1.272       .  A
C566        O580   1.272       .  A
O567        C595   1.267       .  A
O567       Mg569   2.291       .  S
O568       Mg600   2.275       .  S
Mg569       O575   2.151       .  S
Mg569       O583   2.260       .  S
Mg569       O571   2.279       .  S
C570       C1228   1.494       .  S
C570        O608   1.269       .  A
C570        O576   1.278       .  A
O571        C578   1.272       .  A
H572        C585   1.081       .  S
C573        H598   1.081       .  S
C573        O587   1.237       .  S
C573        O588   1.271       .  A
O574        C597   1.268       .  A
O575       Mg589   2.146       .  S
O576       Mg606   2.321       .  S
C577        C836   1.495       .  S
C577        O590   1.275       .  A
C577        O582   1.275       .  A
C578       C1007   1.494       .  S
C578        O605   1.271       .  A
Mg579       O586   2.145       .  S
Mg579       O587   2.168       .  S
Mg579       O580   2.271       .  S
Mg579       O581   2.290       .  S
Mg579       O608   2.251       .  S
O581        C585   1.268       .  A
O582       Mg589   2.298       .  S
O583        C602   1.270       .  A
O584        C604   1.275       .  A
O584       Mg600   2.308       .  S
O586       Mg600   2.153       .  S
O586        C597   1.233       .  S
O587       Mg606   2.152       .  S
O588       Mg600   2.301       .  S
Mg589       O605   2.277       .  S
O590       Mg606   2.284       .  S
H591        C596   1.081       .  S
O592       Mg600   2.137       .  S
O592        C595   1.233       .  S
H593        C595   1.081       .  S
H594        C597   1.081       .  S
O599       Mg606   2.309       .  S
C602        C864   1.494       .  S
C602        O607   1.276       .  A
O603        C604   1.274       .  A
C604       C1119   1.496       .  S
N609        C614   1.353       .  A
N609        C613   1.350       .  A
N609        H641   1.042       .  S
N610        C617   1.355   1_565  A
N610        C618   1.353       .  A
N611        C616   1.355       .  A
N611        C615   1.352       .  A
N611        H642   1.041       .  S
N612        C619   1.347       .  A
N612        C620   1.347   1_545  A
C613        C621   1.387       .  A
C613        C629   1.412       .  A
C614        C630   1.416       .  A
C614        C622   1.387       .  A
C615        C623   1.387       .  A
C615        C632   1.417       .  A
C616        C631   1.417       .  A
C616        C624   1.387       .  A
C617        C629   1.417       .  A
C617        C625   1.385       .  A
C618        C632   1.418       .  A
C618        C626   1.387       .  A
C619        C627   1.387       .  A
C619        C630   1.409       .  A
C620        C628   1.386       .  A
C620        C631   1.406       .  A
C621        C622   1.378       .  A
C621        H633   1.082       .  S
C622        H634   1.082       .  S
C623        C624   1.378       .  A
C623        H635   1.082       .  S
C624        H636   1.082       .  S
C625        C626   1.376   1_545  A
C625        H637   1.082       .  S
C626        H638   1.082       .  S
C627        C628   1.371   1_545  A
C627        H639   1.082       .  S
C628        H640   1.082       .  S
C629        C825   1.493       .  S
C630       C1371   1.486       .  S
C631        C853   1.485       .  S
C632       C1077   1.493       .  S
O643       Mg645   2.172       .  S
O643       Mg651   2.168       .  S
O643        C678   1.238       .  S
C644        H683   1.081       .  S
C644        O657   1.236       .  S
C644        O681   1.272       .  A
Mg645       O674   2.156       .  S
Mg645       O689   2.341       .  S
Mg645       O685   2.287       .  S
Mg645       O656   2.309       .  S
O646       Mg688   2.148       .  S
O646       Mg671   2.142       .  S
O646        C667   1.234       .  S
O647        C678   1.273       .  A
O647       Mg671   2.309       .  S
C648       C1427   1.489       .  S
C648        O650   1.272       .  A
C648        O662   1.274       .  A
O649        C677   1.269       .  A
O649       Mg651   2.299       .  S
O650       Mg682   2.267       .  S
Mg651       O657   2.169       .  S
Mg651       O665   2.284       .  S
Mg651       O653   2.321       .  S
C652        C822   1.495       .  S
C652        O690   1.274       .  A
C652        O658   1.277       .  A
O653        C660   1.276       .  A
H654        C667   1.081       .  S
C655        H680   1.081       .  S
C655        O669   1.237       .  S
C655        O670   1.271       .  A
O656        C679   1.270       .  A
O657       Mg671   2.150       .  S
O658       Mg688   2.328       .  S
C659       C1021   1.482       .  S
C659        O672   1.273       .  A
C659        O664   1.274       .  A
C660        C797   1.491       .  S
C660        O687   1.269       .  A
Mg661       O668   2.163       .  S
Mg661       O669   2.159       .  S
Mg661       O662   2.292       .  S
Mg661       O663   2.294       .  S
Mg661       O690   2.276       .  S
O663        C667   1.268       .  A
O664       Mg671   2.312       .  S
O665        C684   1.275       .  A
O666        C686   1.276       .  A
O666       Mg682   2.315       .  S
O668       Mg682   2.152       .  S
O668        C679   1.235       .  S
O669       Mg688   2.150       .  S
O670       Mg682   2.300       .  S
Mg671       O687   2.246       .  S
O672       Mg688   2.270       .  S
H673        C678   1.081       .  S
O674       Mg682   2.156       .  S
O674        C677   1.234       .  S
H675        C677   1.081       .  S
H676        C679   1.081       .  S
O681       Mg688   2.312       .  S
C684        C990   1.505       .  S
C684        O689   1.280       .  A
O685        C686   1.276       .  A
C686        C808   1.487       .  S
N691        C696   1.354       .  A
N691        C695   1.356   1_655  A
N691        H723   1.038       .  S
N692        C699   1.350       .  A
N692        C700   1.352       .  A
N693        C698   1.353   1_455  A
N693        C697   1.354       .  A
N693        H724   1.038       .  S
N694        C701   1.354       .  A
N694        C702   1.354       .  A
C695        C703   1.386       .  A
C695        C711   1.418       .  A
C696        C712   1.421       .  A
C696        C704   1.388       .  A
C697        C705   1.386       .  A
C697        C714   1.416       .  A
C698        C713   1.419       .  A
C698        C706   1.388       .  A
C699        C711   1.411       .  A
C699        C707   1.386       .  A
C700        C714   1.412       .  A
C700        C708   1.386       .  A
C701        C709   1.387       .  A
C701        C712   1.420       .  A
C702        C710   1.386       .  A
C702        C713   1.418       .  A
C703        C704   1.378   1_455  A
C703        H715   1.082       .  S
C704        H716   1.082       .  S
C705        C706   1.376   1_455  A
C705        H717   1.082       .  S
C706        H718   1.082       .  S
C707        C708   1.370       .  A
C707        H719   1.082       .  S
C708        H720   1.082       .  S
C709        C710   1.374       .  A
C709        H721   1.082       .  S
C710        H722   1.082       .  S
C711        C811   1.490       .  S
C712       C1284   1.496       .  S
C713        C937   1.495       .  S
C714       C1063   1.493       .  S
N725        C730   1.355       .  A
N725        C729   1.356       .  A
N725        H757   1.040       .  S
N726        C733   1.351       .  A
N726        C734   1.352   1_554  A
N727        C732   1.351       .  A
N727        C731   1.351       .  A
N727        H758   1.038       .  S
N728        C735   1.352   1_556  A
N728        C736   1.352       .  A
C729        C737   1.387       .  A
C729        C745   1.420       .  A
C730        C746   1.417       .  A
C730        C738   1.386       .  A
C731        C739   1.388       .  A
C731        C748   1.412       .  A
C732        C747   1.412       .  A
C732        C740   1.387       .  A
C733        C745   1.416       .  A
C733        C741   1.388       .  A
C734        C748   1.412       .  A
C734        C742   1.385       .  A
C735        C743   1.386       .  A
C735        C746   1.414       .  A
C736        C744   1.386       .  A
C736        C747   1.415       .  A
C737        C738   1.376       .  A
C737        H749   1.082       .  S
C738        H750   1.082       .  S
C739        C740   1.374       .  A
C739        H751   1.082       .  S
C740        H752   1.082       .  S
C741        C742   1.374   1_554  A
C741        H753   1.082       .  S
C742        H754   1.082       .  S
C743        C744   1.373   1_554  A
C743        H755   1.082       .  S
C744        H756   1.082       .  S
C745        C878   1.497       .  S
C746       C1340   1.493       .  S
C747        C794   1.485       .  S
C748       C1273   1.483       .  S
N759        C764   1.355   1_556  A
N759        C763   1.354       .  A
N759        H791   1.036       .  S
N760        C767   1.350       .  A
N760        C768   1.351       .  A
N761        C766   1.351       .  A
N761        C765   1.354   1_554  A
N761        H792   1.038       .  S
N762        C769   1.352       .  A
N762        C770   1.353       .  A
C763        C771   1.387       .  A
C763        C779   1.418       .  A
C764        C780   1.417       .  A
C764        C772   1.387       .  A
C765        C773   1.387       .  A
C765        C782   1.414       .  A
C766        C781   1.413       .  A
C766        C774   1.387       .  A
C767        C779   1.413       .  A
C767        C775   1.387       .  A
C768        C782   1.412       .  A
C768        C776   1.386       .  A
C769        C777   1.386       .  A
C769        C780   1.416       .  A
C770        C778   1.386       .  A
C770        C781   1.416       .  A
C771        C772   1.375   1_556  A
C771        H783   1.082       .  S
C772        H784   1.082       .  S
C773        C774   1.373   1_556  A
C773        H785   1.082       .  S
C774        H786   1.082       .  S
C775        C776   1.374       .  A
C775        H787   1.082       .  S
C776        H788   1.082       .  S
C777        C778   1.376       .  A
C777        H789   1.082       .  S
C778        H790   1.082       .  S
C779       C1049   1.487       .  S
C780        C839   1.491       .  S
C781       C1161   1.492       .  S
C782        C923   1.486       .  S
C793        C794   1.399       .  A
C793        C798   1.404       .  A
C793        H800   1.084       .  S
C794        C795   1.410       .  A
C795        C796   1.399       .  A
C795        N802   1.433       .  S
C796        C797   1.410       .  A
C796        H801   1.084       .  S
C797        C798   1.413       .  A
C798        N799   1.429       .  S
N799        H803   1.046       .  S
N799        H804   1.044       .  S
N802        H805   1.046       .  S
N802        H806   1.045       .  S
C807        C808   1.406       .  A
C807        C812   1.399       .  A
C807        H814   1.084       .  S
C808        C809   1.416       .  A
C809        C810   1.410       .  A
C809        N816   1.437       .  S
C810        C811   1.402       .  A
C810        H815   1.084       .  S
C811        C812   1.411       .  A
C812        N813   1.433       .  S
N813        H817   1.045       .  S
N813        H818   1.046       .  S
N816        H819   1.044       .  S
N816        H820   1.047       .  S
C821        C822   1.407       .  A
C821        C826   1.398       .  A
C821        H828   1.084       .  S
C822        C823   1.418       .  A
C823        C824   1.414       .  A
C823        N830   1.437       .  S
C824        C825   1.404       .  A
C824        H829   1.083       .  S
C825        C826   1.411       .  A
C826        N827   1.433       .  S
N827        H831   1.045       .  S
N827        H832   1.046       .  S
N830        H833   1.046       .  S
N830        H834   1.045       .  S
C835        C836   1.408       .  A
C835        C840   1.407       .  A
C835        H842   1.084       .  S
C836        C837   1.418       .  A
C837        C838   1.401       .  A
C837        N844   1.432       .  S
C838        C839   1.398       .  A
C838        H843   1.084       .  S
C839        C840   1.417       .  A
C840        N841   1.438       .  S
N841        H845   1.045       .  S
N841        H846   1.044       .  S
N844        H847   1.046       .  S
N844        H848   1.046       .  S
C849        C850   1.409       .  A
C849        C854   1.400       .  A
C849        H856   1.084       .  S
C850        C851   1.413       .  A
C851        C852   1.402       .  A
C851        N858   1.431       .  S
C852        C853   1.400       .  A
C852        H857   1.084       .  S
C853        C854   1.417       .  A
C854        N855   1.440       .  S
N855        H859   1.046       .  S
N855        H860   1.042       .  S
N858        H861   1.045       .  S
N858        H862   1.046       .  S
C863        C864   1.409       .  A
C863        C868   1.400       .  A
C863        H870   1.084       .  S
C864        C865   1.417       .  A
C865        C866   1.406       .  A
C865        N872   1.432       .  S
C866        C867   1.401       .  A
C866        H871   1.084       .  S
C867        C868   1.411       .  A
C868        N869   1.433       .  S
N869        H873   1.046       .  S
N869        H874   1.045       .  S
N872        H875   1.046       .  S
N872        H876   1.045       .  S
C877        C878   1.403       .  A
C877        C882   1.410       .  A
C877        H884   1.084       .  S
C878        C879   1.408       .  A
C879        C880   1.403       .  A
C879        N886   1.433       .  S
C880        C881   1.409       .  A
C880        H885   1.084       .  S
C881        C882   1.421       .  A
C882        N883   1.438       .  S
N883        H887   1.045       .  S
N883        H888   1.046       .  S
N886        H889   1.046       .  S
N886        H890   1.045       .  S
C891        C892   1.410       .  A
C891        C896   1.406       .  A
C891        H898   1.084       .  S
C892        C893   1.423       .  A
C893        C894   1.400       .  A
C893        N900   1.433       .  S
C894        C895   1.403       .  A
C894        H899   1.084       .  S
C895        C896   1.419       .  A
C896        N897   1.439       .  S
N897        H901   1.045       .  S
N897        H902   1.043       .  S
N900        H903   1.044       .  S
N900        H904   1.047       .  S
C905        C906   1.409       .  A
C905        C910   1.405       .  A
C905        H912   1.084       .  S
C906        C907   1.412       .  A
C907        C908   1.400       .  A
C907        N914   1.431       .  S
C908        C909   1.399       .  A
C908        H913   1.084       .  S
C909        C910   1.406       .  A
C910        N911   1.437       .  S
N911        H915   1.047       .  S
N911        H916   1.044       .  S
N914        H917   1.046       .  S
N914        H918   1.046       .  S
C919        C920   1.408       .  A
C919        C924   1.404       .  A
C919        H926   1.084       .  S
C920        C921   1.416       .  A
C921        C922   1.404       .  A
C921        N928   1.432       .  S
C922        C923   1.399       .  A
C922        H927   1.084       .  S
C923        C924   1.405       .  A
C924        N925   1.432       .  S
N925        H929   1.045       .  S
N925        H930   1.045       .  S
N928        H931   1.046       .  S
N928        H932   1.046       .  S
C933        C934   1.408       .  A
C933        C938   1.401       .  A
C933        H940   1.082       .  S
C934        C935   1.415       .  A
C935        C936   1.407       .  A
C935        N942   1.433       .  S
C936        C937   1.405       .  A
C936        H941   1.084       .  S
C937        C938   1.417       .  A
C938        N939   1.440       .  S
N939        H943   1.046       .  S
N939        H944   1.042       .  S
N942        H945   1.045       .  S
N942        H946   1.046       .  S
C947        C948   1.401       .  A
C947        C952   1.404       .  A
C947        H954   1.084       .  S
C948        C949   1.405       .  A
C949        C950   1.400       .  A
C949        N956   1.433       .  S
C950        C951   1.407       .  A
C950        H955   1.084       .  S
C951        C952   1.411       .  A
C952        N953   1.432       .  S
N953        H957   1.045       .  S
N953        H958   1.046       .  S
N956        H959   1.046       .  S
N956        H960   1.046       .  S
C961        C962   1.401       .  A
C961        C966   1.401       .  A
C961        H968   1.084       .  S
C962        C963   1.417       .  A
C963        C964   1.403       .  A
C963        N970   1.438       .  S
C964        C965   1.406       .  A
C964        H969   1.084       .  S
C965        C966   1.411       .  A
C966        N967   1.433       .  S
N967        H971   1.046       .  S
N967        H972   1.046       .  S
N970        H973   1.043       .  S
N970        H974   1.046       .  S
C975        C976   1.405       .  A
C975        C980   1.411       .  A
C975        H982   1.084       .  S
C976        C977   1.417       .  A
C977        C978   1.402       .  A
C977        N984   1.440       .  S
C978        C979   1.408       .  A
C978        H983   1.084       .  S
C979        C980   1.415       .  A
C980        N981   1.437       .  S
N981        H985   1.045       .  S
N981        H986   1.046       .  S
N984        H987   1.042       .  S
N984        H988   1.046       .  S
C989        C990   1.411       .  A
C989        C994   1.410       .  A
C989        H996   1.083       .  S
C990        C991   1.417       .  A
C991        C992   1.404       .  A
C991        N998   1.429       .  S
C992        C993   1.401       .  A
C992        H997   1.084       .  S
C993        C994   1.417       .  A
C994        N995   1.432       .  S
N995        H999   1.043       .  S
N995       H1000   1.046       .  S
N998       H1001   1.046       .  S
N998       H1002   1.045       .  S
C1003      C1004   1.403       .  A
C1003      C1008   1.410       .  A
C1003      H1010   1.084       .  S
C1004      C1005   1.413       .  A
C1005      C1006   1.396       .  A
C1005      N1012   1.439       .  S
C1006      C1007   1.409       .  A
C1006      H1011   1.084       .  S
C1007      C1008   1.418       .  A
C1008      N1009   1.437       .  S
N1009      H1013   1.045       .  S
N1009      H1014   1.046       .  S
N1012      H1015   1.043       .  S
N1012      H1016   1.045       .  S
C1017      C1018   1.402       .  A
C1017      C1022   1.410       .  A
C1017      H1024   1.084       .  S
C1018      C1019   1.411       .  A
C1019      C1020   1.396       .  A
C1019      N1026   1.433       .  S
C1020      C1021   1.404       .  A
C1020      H1025   1.084       .  S
C1021      C1022   1.415       .  A
C1022      N1023   1.437       .  S
N1023      H1027   1.046       .  S
N1023      H1028   1.045       .  S
N1026      H1029   1.045       .  S
N1026      H1030   1.045       .  S
C1031      C1032   1.402       .  A
C1031      C1036   1.401       .  A
C1031      H1038   1.084       .  S
C1032      C1033   1.419       .  A
C1033      C1034   1.407       .  A
C1033      N1040   1.439       .  S
C1034      C1035   1.409       .  A
C1034      H1039   1.084       .  S
C1035      C1036   1.417       .  A
C1036      N1037   1.433       .  S
N1037      H1041   1.046       .  S
N1037      H1042   1.046       .  S
N1040      H1043   1.043       .  S
N1040      H1044   1.045       .  S
C1045      C1046   1.412       .  A
C1045      C1050   1.399       .  A
C1045      H1052   1.084       .  S
C1046      C1047   1.416       .  A
C1047      C1048   1.405       .  A
C1047      N1054   1.432       .  S
C1048      C1049   1.400       .  A
C1048      H1053   1.084       .  S
C1049      C1050   1.409       .  A
C1050      N1051   1.433       .  S
N1051      H1055   1.045       .  S
N1051      H1056   1.046       .  S
N1054      H1057   1.046       .  S
N1054      H1058   1.046       .  S
C1059      C1060   1.408       .  A
C1059      C1064   1.401       .  A
C1059      H1066   1.084       .  S
C1060      C1061   1.415       .  A
C1061      C1062   1.408       .  A
C1061      N1068   1.438       .  S
C1062      C1063   1.405       .  A
C1062      H1067   1.084       .  S
C1063      C1064   1.416       .  A
C1064      N1065   1.440       .  S
N1065      H1069   1.045       .  S
N1065      H1070   1.042       .  S
N1068      H1071   1.044       .  S
N1068      H1072   1.047       .  S
C1073      C1074   1.410       .  A
C1073      C1078   1.402       .  A
C1073      H1080   1.084       .  S
C1074      C1075   1.422       .  A
C1075      C1076   1.407       .  A
C1075      N1082   1.438       .  S
C1076      C1077   1.400       .  A
C1076      H1081   1.084       .  S
C1077      C1078   1.411       .  A
C1078      N1079   1.433       .  S
N1079      H1083   1.044       .  S
N1079      H1084   1.045       .  S
N1082      H1085   1.046       .  S
N1082      H1086   1.046       .  S
C1087      C1088   1.406       .  A
C1087      C1092   1.399       .  A
C1087      H1094   1.084       .  S
C1088      C1089   1.416       .  A
C1089      C1090   1.405       .  A
C1089      N1096   1.433       .  S
C1090      C1091   1.402       .  A
C1090      H1095   1.084       .  S
C1091      C1092   1.417       .  A
C1092      N1093   1.439       .  S
N1093      H1097   1.045       .  S
N1093      H1098   1.042       .  S
N1096      H1099   1.046       .  S
N1096      H1100   1.046       .  S
C1101      C1102   1.408       .  A
C1101      C1106   1.402       .  A
C1101      H1108   1.084       .  S
C1102      C1103   1.416       .  A
C1103      C1104   1.404       .  A
C1103      N1110   1.433       .  S
C1104      C1105   1.401       .  A
C1104      H1109   1.084       .  S
C1105      C1106   1.415       .  A
C1106      N1107   1.439       .  S
N1107      H1111   1.046       .  S
N1107      H1112   1.042       .  S
N1110      H1113   1.046       .  S
N1110      H1114   1.046       .  S
C1115      C1116   1.399       .  A
C1115      C1120   1.399       .  A
C1115      H1122   1.084       .  S
C1116      C1117   1.405       .  A
C1117      C1118   1.404       .  A
C1117      N1124   1.432       .  S
C1118      C1119   1.411       .  A
C1118      H1123   1.083       .  S
C1119      C1120   1.425       .  A
C1120      N1121   1.431       .  S
N1121      H1125   1.045       .  S
N1121      H1126   1.046       .  S
N1124      H1127   1.046       .  S
N1124      H1128   1.046       .  S
C1129      C1130   1.399       .  A
C1129      C1134   1.403       .  A
C1129      H1136   1.084       .  S
C1130      C1131   1.411       .  A
C1131      C1132   1.399       .  A
C1131      N1138   1.432       .  S
C1132      C1133   1.406       .  A
C1132      H1137   1.084       .  S
C1133      C1134   1.417       .  A
C1134      N1135   1.432       .  S
N1135      H1139   1.045       .  S
N1135      H1140   1.046       .  S
N1138      H1141   1.046       .  S
N1138      H1142   1.045       .  S
C1143      C1144   1.403       .  A
C1143      C1148   1.405       .  A
C1143      H1150   1.084       .  S
C1144      C1145   1.419       .  A
C1145      C1146   1.404       .  A
C1145      N1152   1.439       .  S
C1146      C1147   1.405       .  A
C1146      H1151   1.084       .  S
C1147      C1148   1.418       .  A
C1148      N1149   1.439       .  S
N1149      H1153   1.046       .  S
N1149      H1154   1.046       .  S
N1152      H1155   1.043       .  S
N1152      H1156   1.045       .  S
C1157      C1158   1.411       .  A
C1157      C1162   1.405       .  A
C1157      H1164   1.084       .  S
C1158      C1159   1.413       .  A
C1159      C1160   1.400       .  A
C1159      N1166   1.433       .  S
C1160      C1161   1.403       .  A
C1160      H1165   1.084       .  S
C1161      C1162   1.416       .  A
C1162      N1163   1.439       .  S
N1163      H1167   1.046       .  S
N1163      H1168   1.043       .  S
N1166      H1169   1.046       .  S
N1166      H1170   1.046       .  S
C1171      C1172   1.406       .  A
C1171      C1176   1.403       .  A
C1171      H1178   1.083       .  S
C1172      C1173   1.415       .  A
C1173      C1174   1.404       .  A
C1173      N1180   1.438       .  S
C1174      C1175   1.403       .  A
C1174      H1179   1.084       .  S
C1175      C1176   1.416       .  A
C1176      N1177   1.439       .  S
N1177      H1181   1.046       .  S
N1177      H1182   1.043       .  S
N1180      H1183   1.045       .  S
N1180      H1184   1.046       .  S
C1185      C1186   1.413       .  A
C1185      C1190   1.415       .  A
C1185      H1192   1.083       .  S
C1186      C1187   1.428       .  A
C1187      C1188   1.399       .  A
C1187      N1194   1.433       .  S
C1188      C1189   1.397       .  A
C1188      H1193   1.084       .  S
C1189      C1190   1.409       .  A
C1190      N1191   1.437       .  S
N1191      H1195   1.046       .  S
N1191      H1196   1.045       .  S
N1194      H1197   1.045       .  S
N1194      H1198   1.045       .  S
C1199      C1200   1.409       .  A
C1199      C1204   1.415       .  A
C1199      H1206   1.083       .  S
C1200      C1201   1.419       .  A
C1201      C1202   1.404       .  A
C1201      N1208   1.433       .  S
C1202      C1203   1.401       .  A
C1202      H1207   1.084       .  S
C1203      C1204   1.414       .  A
C1204      N1205   1.437       .  S
N1205      H1209   1.046       .  S
N1205      H1210   1.045       .  S
N1208      H1211   1.046       .  S
N1208      H1212   1.046       .  S
C1213      C1214   1.407       .  A
C1213      C1218   1.400       .  A
C1213      H1220   1.083       .  S
C1214      C1215   1.425       .  A
C1215      C1216   1.408       .  A
C1215      N1222   1.438       .  S
C1216      C1217   1.398       .  A
C1216      H1221   1.084       .  S
C1217      C1218   1.406       .  A
C1218      N1219   1.433       .  S
N1219      H1223   1.046       .  S
N1219      H1224   1.046       .  S
N1222      H1225   1.045       .  S
N1222      H1226   1.046       .  S
C1227      C1228   1.408       .  A
C1227      C1232   1.403       .  A
C1227      H1234   1.083       .  S
C1228      C1229   1.420       .  A
C1229      C1230   1.405       .  A
C1229      N1236   1.433       .  S
C1230      C1231   1.399       .  A
C1230      H1235   1.084       .  S
C1231      C1232   1.405       .  A
C1232      N1233   1.432       .  S
N1233      H1237   1.045       .  S
N1233      H1238   1.046       .  S
N1236      H1239   1.046       .  S
N1236      H1240   1.046       .  S
C1241      C1242   1.409       .  A
C1241      C1246   1.400       .  A
C1241      H1248   1.084       .  S
C1242      C1243   1.413       .  A
C1243      C1244   1.408       .  A
C1243      N1250   1.432       .  S
C1244      C1245   1.404       .  A
C1244      H1249   1.084       .  S
C1245      C1246   1.412       .  A
C1246      N1247   1.433       .  S
N1247      H1251   1.044       .  S
N1247      H1252   1.045       .  S
N1250      H1253   1.046       .  S
N1250      H1254   1.046       .  S
C1255      C1256   1.403       .  A
C1255      C1260   1.408       .  A
C1255      H1262   1.084       .  S
C1256      C1257   1.412       .  A
C1257      C1258   1.402       .  A
C1257      N1264   1.433       .  S
C1258      C1259   1.410       .  A
C1258      H1263   1.083       .  S
C1259      C1260   1.418       .  A
C1260      N1261   1.438       .  S
N1261      H1265   1.046       .  S
N1261      H1266   1.045       .  S
N1264      H1267   1.046       .  S
N1264      H1268   1.044       .  S
C1269      C1270   1.407       .  A
C1269      C1274   1.394       .  A
C1269      H1276   1.083       .  S
C1270      C1271   1.419       .  A
C1271      C1272   1.406       .  A
C1271      N1278   1.433       .  S
C1272      C1273   1.400       .  A
C1272      H1277   1.084       .  S
C1273      C1274   1.408       .  A
C1274      N1275   1.433       .  S
N1275      H1279   1.045       .  S
N1275      H1280   1.045       .  S
N1278      H1281   1.046       .  S
N1278      H1282   1.046       .  S
C1283      C1284   1.400       .  A
C1283      C1288   1.403       .  A
C1283      H1290   1.084       .  S
C1284      C1285   1.411       .  A
C1285      C1286   1.410       .  A
C1285      N1292   1.437       .  S
C1286      C1287   1.408       .  A
C1286      H1291   1.083       .  S
C1287      C1288   1.417       .  A
C1288      N1289   1.431       .  S
N1289      H1293   1.046       .  S
N1289      H1294   1.044       .  S
N1292      H1295   1.045       .  S
N1292      H1296   1.046       .  S
C1297      C1298   1.409       .  A
C1297      C1302   1.399       .  A
C1297      H1304   1.084       .  S
C1298      C1299   1.419       .  A
C1299      C1300   1.404       .  A
C1299      N1306   1.432       .  S
C1300      C1301   1.403       .  A
C1300      H1305   1.084       .  S
C1301      C1302   1.405       .  A
C1302      N1303   1.439       .  S
N1303      H1307   1.045       .  S
N1303      H1308   1.046       .  S
N1306      H1309   1.045       .  S
N1306      H1310   1.044       .  S
C1311      C1312   1.400       .  A
C1311      C1316   1.405       .  A
C1311      H1318   1.084       .  S
C1312      C1313   1.408       .  A
C1313      C1314   1.394       .  A
C1313      N1320   1.433       .  S
C1314      C1315   1.410       .  A
C1314      H1319   1.083       .  S
C1315      C1316   1.414       .  A
C1316      N1317   1.430       .  S
N1317      H1321   1.045       .  S
N1317      H1322   1.045       .  S
N1320      H1323   1.045       .  S
N1320      H1324   1.045       .  S
C1325      C1326   1.411       .  A
C1325      C1330   1.413       .  A
C1325      H1332   1.083       .  S
C1326      C1327   1.416       .  A
C1327      C1328   1.407       .  A
C1327      N1334   1.432       .  S
C1328      C1329   1.403       .  A
C1328      H1333   1.084       .  S
C1329      C1330   1.412       .  A
C1330      N1331   1.437       .  S
N1331      H1335   1.048       .  S
N1331      H1336   1.043       .  S
N1334      H1337   1.045       .  S
N1334      H1338   1.046       .  S
C1339      C1340   1.400       .  A
C1339      C1344   1.404       .  A
C1339      H1346   1.084       .  S
C1340      C1341   1.410       .  A
C1341      C1342   1.409       .  A
C1341      N1348   1.437       .  S
C1342      C1343   1.409       .  A
C1342      H1347   1.083       .  S
C1343      C1344   1.419       .  A
C1344      N1345   1.433       .  S
N1345      H1349   1.046       .  S
N1345      H1350   1.046       .  S
N1348      H1351   1.046       .  S
N1348      H1352   1.045       .  S
C1353      C1354   1.405       .  A
C1353      C1358   1.408       .  A
C1353      H1360   1.084       .  S
C1354      C1355   1.409       .  A
C1355      C1356   1.405       .  A
C1355      N1362   1.432       .  S
C1356      C1357   1.409       .  A
C1356      H1361   1.083       .  S
C1357      C1358   1.416       .  A
C1358      N1359   1.432       .  S
N1359      H1363   1.046       .  S
N1359      H1364   1.045       .  S
N1362      H1365   1.046       .  S
N1362      H1366   1.046       .  S
C1367      C1368   1.408       .  A
C1367      C1372   1.399       .  A
C1367      H1374   1.084       .  S
C1368      C1369   1.412       .  A
C1369      C1370   1.404       .  A
C1369      N1376   1.438       .  S
C1370      C1371   1.405       .  A
C1370      H1375   1.084       .  S
C1371      C1372   1.414       .  A
C1372      N1373   1.439       .  S
N1373      H1377   1.046       .  S
N1373      H1378   1.043       .  S
N1376      H1379   1.046       .  S
N1376      H1380   1.046       .  S
C1381      C1382   1.400       .  A
C1381      C1386   1.405       .  A
C1381      H1388   1.084       .  S
C1382      C1383   1.414       .  A
C1383      C1384   1.402       .  A
C1383      N1390   1.439       .  S
C1384      C1385   1.408       .  A
C1384      H1389   1.083       .  S
C1385      C1386   1.420       .  A
C1386      N1387   1.439       .  S
N1387      H1391   1.046       .  S
N1387      H1392   1.046       .  S
N1390      H1393   1.043       .  S
N1390      H1394   1.045       .  S
C1395      C1396   1.403       .  A
C1395      C1400   1.413       .  A
C1395      H1402   1.084       .  S
C1396      C1397   1.416       .  A
C1397      C1398   1.405       .  A
C1397      N1404   1.439       .  S
C1398      C1399   1.410       .  A
C1398      H1403   1.083       .  S
C1399      C1400   1.421       .  A
C1400      N1401   1.438       .  S
N1401      H1405   1.046       .  S
N1401      H1406   1.045       .  S
N1404      H1407   1.043       .  S
N1404      H1408   1.045       .  S
C1409      C1410   1.408       .  A
C1409      C1414   1.408       .  A
C1409      H1416   1.084       .  S
C1410      C1411   1.411       .  A
C1411      C1412   1.405       .  A
C1411      N1418   1.431       .  S
C1412      C1413   1.402       .  A
C1412      H1417   1.084       .  S
C1413      C1414   1.418       .  A
C1414      N1415   1.439       .  S
N1415      H1419   1.046       .  S
N1415      H1420   1.043       .  S
N1418      H1421   1.044       .  S
N1418      H1422   1.045       .  S
C1423      C1424   1.399       .  A
C1423      C1428   1.401       .  A
C1423      H1430   1.084       .  S
C1424      C1425   1.408       .  A
C1425      C1426   1.408       .  A
C1425      N1432   1.437       .  S
C1426      C1427   1.410       .  A
C1426      H1431   1.083       .  S
C1427      C1428   1.415       .  A
C1428      N1429   1.433       .  S
N1429      H1433   1.046       .  S
N1429      H1434   1.046       .  S
N1432      H1435   1.047       .  S
N1432      H1436   1.044       .  S
C1437      C1438   1.399       .  A
C1437      C1442   1.403       .  A
C1437      H1444   1.084       .  S
C1438      C1439   1.409       .  A
C1439      C1440   1.403       .  A
C1439      N1446   1.432       .  S
C1440      C1441   1.412       .  A
C1440      H1445   1.083       .  S
C1441      C1442   1.418       .  A
C1442      N1443   1.433       .  S
N1443      H1447   1.046       .  S
N1443      H1448   1.046       .  S
N1446      H1449   1.045       .  S
N1446      H1450   1.045       .  S
C1451      C1452   1.409       .  A
C1451      C1456   1.404       .  A
C1451      H1458   1.084       .  S
C1452      C1453   1.415       .  A
C1453      C1454   1.405       .  A
C1453      N1460   1.432       .  S
C1454      C1455   1.404       .  A
C1454      H1459   1.084       .  S
C1455      C1456   1.409       .  A
C1456      N1457   1.433       .  S
N1457      H1461   1.045       .  S
N1457      H1462   1.046       .  S
N1460      H1463   1.046       .  S
N1460      H1464   1.046       .  S
