geometry optimzed in LAMMPS
_audit_creation_date              2020-11-30 
_audit_creation_method            'lammps2cif' 
_symmetry_space_group_name_H-M    'P1' 
_symmetry_Int_Tables_number       1 
_symmetry_cell_setting            triclinic 
loop_ 
_symmetry_equiv_pos_as_xyz 
  x,y,z 
_cell_length_a                    55.34490604 
_cell_length_b                    54.98096214419029 
_cell_length_c                    33.06558405525292 
_cell_angle_alpha                 90.36849332827664 
_cell_angle_beta                  90.13366833723431 
_cell_angle_gamma                 120.51199024038931 
loop_ 
_atom_site_label 
_atom_site_type_symbol 
_atom_site_fract_x 
_atom_site_fract_y 
_atom_site_fract_z 
_atom_site_charge 
Zn1        Zn  0.80850727  0.32842625  0.12478962     1.49700
Zn2        Zn  0.86975295  0.34214935  0.12972134     1.49400
Zn3        Zn  0.84488407  0.35798614  0.20309053     1.49100
Zn4        Zn  0.82363787  0.29431352  0.18843936     1.49500
O5          O  0.83641743  0.33037448  0.16148015    -1.83200
O6          O  0.82014624  0.32812873  0.06735503    -0.73800
O7          O  0.90511308  0.37038961  0.16058321    -0.73600
O8          O  0.82921096  0.38308626  0.18923623    -0.73200
O9          O  0.86657353  0.35422240  0.07270356    -0.73800
O10         O  0.80360492  0.36221005  0.13395518    -0.73400
O11         O  0.88685616  0.37924659  0.21471078    -0.74000
O12         O  0.83278550  0.30155125  0.24973963    -0.73400
O13         O  0.87143529  0.30740069  0.11938959    -0.74200
O14         O  0.82760652  0.33901329  0.25475943    -0.73600
O15         O  0.84087233  0.27320971  0.15955859    -0.74000
O16         O  0.78093885  0.27049935  0.18216799    -0.73900
O17         O  0.77167270  0.29278310  0.13386381    -0.73700
C18         C  0.84426432  0.34150106  0.05124330     0.78100
C19         C  0.90792966  0.38191753  0.19526188     0.78600
C20         C  0.81269381  0.38153885  0.16104583     0.77500
C21         C  0.82978781  0.31935145  0.27106307     0.77900
C22         C  0.85926558  0.28201538  0.13153602     0.79000
C23         C  0.76375549  0.27234751  0.15830004     0.78100
Zn24       Zn  0.85975161  0.37562716  0.69996690     1.49700
Zn25       Zn  0.83327414  0.30770788  0.68595796     1.49400
Zn26       Zn  0.82158450  0.34521302  0.62464267     1.49100
Zn27       Zn  0.88271205  0.35378027  0.62853935     1.49500
O28         O  0.84946522  0.34540525  0.66018585    -1.83200
O29         O  0.85177888  0.35873720  0.75502703    -0.73800
O30         O  0.79053288  0.28501624  0.67915274    -0.73600
O31         O  0.81638393  0.37822314  0.63422463    -0.73200
O32         O  0.83974280  0.31354602  0.74723949    -0.73800
O33         O  0.83968866  0.39826940  0.69105519    -0.73400
O34         O  0.78397912  0.31142317  0.63497075    -0.74000
O35         O  0.87652002  0.35715271  0.56831707    -0.73400
O36         O  0.85088668  0.28528780  0.66105849    -0.74200
O37         O  0.83162992  0.34539587  0.56670989    -0.73600
O38         O  0.88749886  0.32012643  0.62944079    -0.74000
O39         O  0.91886401  0.38697000  0.65269731    -0.73900
O40         O  0.90174591  0.40125459  0.70228512    -0.73700
C41         C  0.84584838  0.33499303  0.76964215     0.78100
C42         C  0.77436128  0.28988507  0.65757640     0.78600
C43         C  0.82342288  0.39653808  0.66227572     0.77500
C44         C  0.85415839  0.35100599  0.54879206     0.77900
C45         C  0.87334783  0.29449051  0.64033192     0.79000
C46         C  0.92247052  0.40274385  0.68336731     0.78100
Zn47       Zn  0.52838114  0.18648220  0.20192839     1.49700
Zn48       Zn  0.46408804  0.13802688  0.19896092     1.49400
Zn49       Zn  0.48952812  0.18248004  0.12971301     1.49100
Zn50       Zn  0.50903884  0.13623213  0.13786318     1.49500
O51         O  0.49782595  0.16051403  0.16688069    -1.83200
O52         O  0.51782684  0.17675141  0.25951398    -0.73800
O53         O  0.42914087  0.13746567  0.17685246    -0.73600
O54         O  0.51033874  0.22457594  0.14315498    -0.73200
O55         O  0.47134679  0.14877881  0.25812728    -0.73800
O56         O  0.53744563  0.22652438  0.19421266    -0.73400
O57         O  0.44825433  0.16764527  0.12631870    -0.74000
O58         O  0.50054031  0.13661305  0.07710527    -0.73400
O59         O  0.45593649  0.09836130  0.19863482    -0.74200
O60         O  0.49739369  0.17548923  0.07384258    -0.73600
O61         O  0.48855839  0.09567734  0.16285217    -0.74000
O62         O  0.55170191  0.15342132  0.14230093    -0.73900
O63         O  0.56365658  0.18557256  0.19124923    -0.73700
C64         C  0.49449348  0.16245433  0.27742274     0.78100
C65         C  0.42687105  0.14987068  0.14586774     0.78600
C66         C  0.52887225  0.23855619  0.17012876     0.77500
C67         C  0.49826215  0.15513240  0.05681525     0.77900
C68         C  0.46707608  0.08443958  0.18595449     0.79000
C69         C  0.57006804  0.17243640  0.16566990     0.78100
Zn70       Zn  0.52234580  0.14479848  0.70408551     1.49700
Zn71       Zn  0.47678711  0.16466890  0.69118656     1.49400
Zn72       Zn  0.52778037  0.18042210  0.62957604     1.49100
Zn73       Zn  0.47790083  0.11769245  0.63198115     1.49500
O74         O  0.50068282  0.15181771  0.66444531    -1.83200
O75         O  0.51325690  0.15191837  0.75887351    -0.73800
O76         O  0.49328600  0.20707933  0.68167539    -0.73600
O77         O  0.56714979  0.19124398  0.64285227    -0.73200
O78         O  0.47720158  0.15911213  0.75310336    -0.73800
O79         O  0.56465510  0.16632880  0.69664289    -0.73400
O80         O  0.52577226  0.21495138  0.63581458    -0.74000
O81         O  0.48962738  0.12302405  0.57339913    -0.73400
O82         O  0.43654640  0.14332879  0.66601167    -0.74200
O83         O  0.52168081  0.16871705  0.57185167    -0.73600
O84         O  0.43858091  0.11036663  0.62912377    -0.74000
O85         O  0.47754687  0.08357255  0.65605894    -0.73900
O86         O  0.50881052  0.10408891  0.70582819    -0.73700
C87         C  0.49419203  0.15521003  0.77463322     0.78100
C88         C  0.51261686  0.22349849  0.65755693     0.78600
C89         C  0.57891679  0.18442161  0.66982013     0.77500
C90         C  0.50631067  0.14521707  0.55407262     0.77900
C91         C  0.42523374  0.12214088  0.64166625     0.79000
C92         C  0.49086527  0.08224730  0.68667416     0.78100
Zn93       Zn  0.68128821  0.54452749  0.19716191     1.49700
Zn94       Zn  0.63336362  0.49240823  0.14199258     1.49400
Zn95       Zn  0.69985241  0.52021945  0.12414095     1.49100
Zn96       Zn  0.67525645  0.48461454  0.20198185     1.49500
O97         O  0.67188137  0.51036672  0.16599239    -1.83200
O98         O  0.64719188  0.54771906  0.19927494    -0.73800
O99         O  0.63632900  0.49647521  0.07894620    -0.73600
O100        O  0.72409931  0.56212635  0.11970580    -0.73200
O101        O  0.61179806  0.51083518  0.16771230    -0.73800
O102        O  0.71200359  0.58031818  0.17060297    -0.73400
O103        O  0.68142391  0.51023483  0.07074530    -0.74000
O104        O  0.70818523  0.48030632  0.18931222    -0.73400
O105        O  0.61221930  0.44978076  0.15459624    -0.74200
O106        O  0.72326204  0.50145307  0.13016779    -0.73600
O107        O  0.64140838  0.44613673  0.19726200    -0.74000
O108        O  0.67963900  0.49723352  0.25918052    -0.73900
O109        O  0.68910889  0.54159654  0.25671458    -0.73700
C110        C  0.62146364  0.53342237  0.18917471     0.78100
C111        C  0.65746250  0.50299851  0.05616007     0.78600
C112        C  0.72606104  0.58325450  0.13866058     0.77500
C113        C  0.72428513  0.48676532  0.15902939     0.77900
C114        C  0.61855871  0.43504575  0.17726430     0.79000
C115        C  0.68564173  0.52029111  0.27661206     0.78100
Zn116      Zn  0.69193929  0.51917301  0.69029900     1.49700
Zn117      Zn  0.65699960  0.46831808  0.62753183     1.49400
Zn118      Zn  0.62435823  0.47537080  0.70118274     1.49100
Zn119      Zn  0.64462692  0.51724820  0.62895836     1.49500
O120        O  0.65505590  0.49531236  0.66288556    -1.83200
O121        O  0.71719687  0.50166242  0.68165062    -0.73800
O122        O  0.62426608  0.42965282  0.63716828    -0.73600
O123        O  0.64007532  0.48286913  0.75681607    -0.73200
O124        O  0.69203450  0.46721225  0.63740795    -0.73800
O125        O  0.68452947  0.51818101  0.75230738    -0.73400
O126        O  0.60170081  0.43331641  0.69036190    -0.74000
O127        O  0.61315178  0.52125646  0.65224236    -0.73400
O128        O  0.65781984  0.47851211  0.56923573    -0.74200
O129        O  0.59829160  0.49085732  0.70291162    -0.73600
O130        O  0.63854892  0.50541261  0.57031925    -0.74000
O131        O  0.67757492  0.55532928  0.62461813    -0.73900
O132        O  0.71210704  0.55985442  0.66438899    -0.73700
C133        C  0.71391852  0.48118008  0.65913424     0.78100
C134        C  0.60458461  0.41864485  0.66294144     0.78600
C135        C  0.66299094  0.50130628  0.77326554     0.77500
C136        C  0.59719106  0.50974035  0.68243935     0.77900
C137        C  0.64906158  0.49289534  0.55108258     0.79000
C138        C  0.70260569  0.56972270  0.63759258     0.78100
Zn139      Zn  0.32896992  0.80950032  0.30283004     1.49700
Zn140      Zn  0.31861349  0.86034080  0.30998411     1.49400
Zn141      Zn  0.30062112  0.81510067  0.37945048     1.49100
Zn142      Zn  0.36603388  0.85934781  0.36774759     1.49500
O143        O  0.32913726  0.83667479  0.34013913    -1.83200
O144        O  0.32813110  0.81995084  0.24597898    -0.73800
O145        O  0.28450409  0.85990801  0.33425980    -0.73600
O146        O  0.27928666  0.77346765  0.36892388    -0.73200
O147        O  0.31428685  0.85141092  0.24972474    -0.73800
O148        O  0.29633624  0.77011175  0.30991844    -0.73400
O149        O  0.27385751  0.82882847  0.38361257    -0.74000
O150        O  0.35936082  0.85958911  0.43002134    -0.73400
O151        O  0.35114213  0.89968344  0.31100824    -0.74200
O152        O  0.31651773  0.82177668  0.43420865    -0.73600
O153        O  0.38692532  0.89986213  0.34248510    -0.74000
O154        O  0.38930149  0.83989585  0.35851411    -0.73900
O155        O  0.36343107  0.80782175  0.31152986    -0.73700
C156        C  0.32115873  0.83619757  0.22918417     0.78100
C157        C  0.26989886  0.84657433  0.36489802     0.78600
C158        C  0.27939886  0.75890316  0.33905749     0.77500
C159        C  0.33847949  0.84146054  0.45087363     0.77900
C160        C  0.37689505  0.91218773  0.32124976     0.79000
C161        C  0.38498681  0.81981517  0.33431306     0.78100
Zn162      Zn  0.35008359  0.87796153  0.87041094     1.49700
Zn163      Zn  0.36552765  0.84863769  0.79916428     1.49400
Zn164      Zn  0.33986535  0.81671533  0.87811011     1.49100
Zn165      Zn  0.30067169  0.82708319  0.81701163     1.49500
O166        O  0.33863353  0.84277635  0.84091576    -1.83200
O167        O  0.38429850  0.91098775  0.84477945    -0.73800
O168        O  0.38587311  0.82684951  0.80703389    -0.73600
O169        O  0.34178607  0.82916593  0.93468886    -0.73200
O170        O  0.39385683  0.88920410  0.79584069    -0.73800
O171        O  0.35551001  0.87470505  0.93091704    -0.73400
O172        O  0.37269496  0.81134830  0.86946594    -0.74000
O173        O  0.27784674  0.78441129  0.82777884    -0.73400
O174        O  0.34785102  0.84203768  0.74507933    -0.74200
O175        O  0.30554115  0.77916032  0.87149528    -0.73600
O176        O  0.30414989  0.83281373  0.75490536    -0.74000
O177        O  0.28115717  0.84727247  0.84280601    -0.73900
O178        O  0.31834187  0.88553924  0.86886855    -0.73700
C179        C  0.39857591  0.91151416  0.81421491     0.78100
C180        C  0.38768118  0.81470892  0.83861560     0.78600
C181        C  0.34906898  0.85271636  0.95150296     0.77500
C182        C  0.28313394  0.76898796  0.85061269     0.77900
C183        C  0.32464761  0.83813235  0.73154050     0.79000
C184        C  0.29221385  0.87129597  0.86082495     0.78100
Zn185      Zn  0.12709220  0.46444228  0.37398375     1.49700
Zn186      Zn  0.14812714  0.50558190  0.30060465     1.49400
Zn187      Zn  0.18855501  0.51666821  0.37580608     1.49100
Zn188      Zn  0.17426481  0.46589151  0.31325506     1.49500
O189        O  0.15973424  0.48797231  0.34069943    -1.83200
O190        O  0.09010655  0.45752330  0.34898896    -0.73800
O191        O  0.16620709  0.54750796  0.31016247    -0.73600
O192        O  0.17845663  0.50848023  0.43418248    -0.73200
O193        O  0.10608930  0.48686011  0.29704194    -0.73800
O194        O  0.13275570  0.47700803  0.43284062    -0.73400
O195        O  0.19290262  0.55462977  0.36458723    -0.74000
O196        O  0.21643524  0.48516293  0.32206235    -0.73400
O197        O  0.15736920  0.49857184  0.24566962    -0.74200
O198        O  0.22584135  0.51895122  0.36755092    -0.73600
O199        O  0.16845968  0.46507316  0.25184372    -0.74000
O200        O  0.15572659  0.42589211  0.33730137    -0.73900
O201        O  0.12468220  0.42756242  0.37828425    -0.73700
C202        C  0.08581320  0.46774798  0.31705412     0.78100
C203        C  0.18327875  0.56370125  0.33729693     0.78600
C204        C  0.15541254  0.49298851  0.45223692     0.77500
C205        C  0.23367424  0.50554381  0.34469272     0.77900
C206        C  0.16282486  0.48072025  0.23017367     0.79000
C207        C  0.13658076  0.41482025  0.36410116     0.78100
Zn208      Zn  0.16215774  0.51863617  0.79955220     1.49700
Zn209      Zn  0.13249081  0.47835111  0.87198457     1.49400
Zn210      Zn  0.17603451  0.47110578  0.81414458     1.49100
Zn211      Zn  0.19636871  0.52235227  0.87622943     1.49500
O212        O  0.16675674  0.49710853  0.84080945    -1.83200
O213        O  0.12116285  0.50138882  0.78705192    -0.73800
O214        O  0.12215234  0.43814764  0.87570361    -0.73600
O215        O  0.16707509  0.47003505  0.75343294    -0.73200
O216        O  0.09951553  0.47849720  0.84300540    -0.73800
O217        O  0.17882001  0.51507605  0.74831585    -0.73400
O218        O  0.15293148  0.43175707  0.84074587    -0.74000
O219        O  0.23160687  0.52237148  0.86390486    -0.73400
O220        O  0.13952667  0.49063721  0.93163885    -0.74200
O221        O  0.21886868  0.48719026  0.81951620    -0.73600
O222        O  0.18590350  0.50954709  0.93297483    -0.74000
O223        O  0.20346223  0.56192204  0.87034442    -0.73900
O224        O  0.17928049  0.55976771  0.81522953    -0.73700
C225        C  0.09881152  0.48654277  0.80704028     0.78100
C226        C  0.13177895  0.42257913  0.86431253     0.78600
C227        C  0.17305461  0.49168210  0.73210476     0.77500
C228        C  0.23762117  0.50766402  0.84077146     0.77900
C229        C  0.16245471  0.49871758  0.95096771     0.79000
C230        C  0.19549678  0.57362535  0.84460709     0.78100
Zn231      Zn  0.47002117  0.66219005  0.29850072     1.49700
Zn232      Zn  0.50904960  0.69272109  0.37432418     1.49400
Zn233      Zn  0.48771281  0.62733109  0.35617018     1.49100
Zn234      Zn  0.53270333  0.67581955  0.29885673     1.49500
O235        O  0.49986136  0.66439634  0.33197087    -1.83200
O236        O  0.46400986  0.69472400  0.31099019    -0.73800
O237        O  0.49622751  0.67318673  0.42742750    -0.73600
O238        O  0.44535808  0.60259036  0.35127426    -0.73200
O239        O  0.49051556  0.71604690  0.36515688    -0.73800
O240        O  0.43369876  0.62628462  0.30879807    -0.73400
O241        O  0.49531446  0.63257688  0.41666979    -0.74000
O242        O  0.54004895  0.64382932  0.29534065    -0.73400
O243        O  0.55133908  0.71854252  0.37971389    -0.74200
O244        O  0.50718032  0.60747843  0.32969084    -0.73600
O245        O  0.56772549  0.70836609  0.32472894    -0.74000
O246        O  0.52572214  0.68216374  0.24039942    -0.73900
O247        O  0.47931992  0.66314983  0.23971013    -0.73700
C248        C  0.47300954  0.71389818  0.33823447     0.78100
C249        C  0.49489086  0.65078813  0.44031746     0.78600
C250        C  0.42707254  0.60511545  0.33121704     0.77500
C251        C  0.52876821  0.61836459  0.30698543     0.77900
C252        C  0.57177366  0.72206060  0.35778258     0.79000
C253        C  0.50255376  0.67281222  0.22129869     0.78100
Zn254      Zn  0.49100761  0.62718149  0.85896693     1.49700
Zn255      Zn  0.53733076  0.67105916  0.79553641     1.49400
Zn256      Zn  0.47731210  0.66349029  0.79771689     1.49100
Zn257      Zn  0.52067374  0.69556885  0.86974841     1.49500
O258        O  0.50651724  0.66406981  0.83115812    -1.83200
O259        O  0.50808795  0.60418794  0.83513240    -0.73800
O260        O  0.53003512  0.67571872  0.73683334    -0.73600
O261        O  0.43982114  0.62875808  0.80679227    -0.73200
O262        O  0.53885370  0.63613447  0.79273219    -0.73800
O263        O  0.44845851  0.60388835  0.85121140    -0.73400
O264        O  0.48514866  0.66339772  0.73913167    -0.74000
O265        O  0.50055178  0.71781459  0.86357374    -0.73400
O266        O  0.57508409  0.70245785  0.81606181    -0.74200
O267        O  0.47364567  0.69719860  0.80940247    -0.73600
O268        O  0.56297783  0.72152723  0.86572466    -0.74000
O269        O  0.51450157  0.68019532  0.92578991    -0.73900
O270        O  0.49712004  0.63373384  0.92002552    -0.73700
C271        C  0.52669272  0.61155656  0.80763000     0.78100
C272        C  0.50698035  0.66912726  0.71926680     0.78600
C273        C  0.43148098  0.60723232  0.82909392     0.77500
C274        C  0.48303859  0.71611224  0.83694526     0.77900
C275        C  0.58166995  0.72060012  0.84441353     0.79000
C276        C  0.50582119  0.65609423  0.94144925     0.78100
Zn277      Zn  0.18728469  0.03627747  0.04764421     1.49700
Zn278      Zn  0.21240109  0.01786783  0.97675011     1.49400
Zn279      Zn  0.16248221  0.96883386  0.03197021     1.49100
Zn280      Zn  0.15153623  0.00794882  0.97060706     1.49500
O281        O  0.17829385  0.00706569  0.00726950    -1.83200
O282        O  0.22878500  0.06377723  0.05157741    -0.73800
O283        O  0.21960825  0.98618435  0.97827658    -0.73600
O284        O  0.16684039  0.97397139  0.09483256    -0.73200
O285        O  0.24675661  0.05223646  0.00004510    -0.73800
O286        O  0.17833996  0.01899434  0.10121287    -0.73400
O287        O  0.18401315  0.94936213  0.00847031    -0.74000
O288        O  0.11448392  0.97297061  0.97614787    -0.73400
O289        O  0.20785075  0.02164405  0.91681815    -0.74200
O290        O  0.11962297  0.94459718  0.01850223    -0.73600
O291        O  0.16301897  0.00949432  0.91376397    -0.74000
O292        O  0.14595577  0.04089324  0.98017784    -0.73900
O293        O  0.16674063  0.05756976  0.03962756    -0.73700
C294        C  0.24974228  0.06731031  0.03117396     0.78100
C295        C  0.20703943  0.96040804  0.98857421     0.78600
C296        C  0.17242751  0.99557311  0.11673276     0.77500
C297        C  0.10427993  0.94992417  0.99541442     0.77900
C298        C  0.18587757  0.01557548  0.89663188     0.79000
C299        C  0.15204586  0.05768612  0.01006320     0.78100
Zn300      Zn  0.14351828  0.99085579  0.54511894     1.49700
Zn301      Zn  0.19615897  0.98224344  0.53906285     1.49400
Zn302      Zn  0.15015057  0.96081476  0.47040595     1.49100
Zn303      Zn  0.19253527  0.02828979  0.48177915     1.49500
O304        O  0.17103865  0.99108516  0.50892084    -1.83200
O305        O  0.15517154  0.99119683  0.60211740    -0.73800
O306        O  0.19608765  0.94726282  0.51793675    -0.73600
O307        O  0.10831476  0.93917037  0.47886453    -0.73200
O308        O  0.18847596  0.97987588  0.59885464    -0.73800
O309        O  0.10457769  0.95675974  0.53749528    -0.73400
O310        O  0.16415796  0.93405199  0.46906416    -0.74000
O311        O  0.19171397  0.02102718  0.42012248    -0.73400
O312        O  0.23530299  0.01468345  0.53486050    -0.74200
O313        O  0.15826229  0.97571503  0.41537164    -0.73600
O314        O  0.23378027  0.04983894  0.50406965    -0.74000
O315        O  0.17315271  0.05173749  0.49092201    -0.73900
O316        O  0.14033648  0.02513391  0.53554855    -0.73700
C317        C  0.17257146  0.98582952  0.61905075     0.78100
C318        C  0.18246974  0.93125678  0.48817061     0.78600
C319        C  0.09361826  0.93926604  0.50827202     0.77500
C320        C  0.17595577  0.99880339  0.39912451     0.77900
C321        C  0.24726918  0.04017293  0.52318195     0.79000
C322        C  0.15246236  0.04697424  0.51346252     0.78100
Zn323      Zn  0.00039063  0.20357697  0.03803152     1.49700
Zn324      Zn  0.99935753  0.14505318  0.04495196     1.49400
Zn325      Zn  0.96089456  0.15204657  0.97839380     1.49100
Zn326      Zn  0.02850938  0.18483423  0.97048890     1.49500
O327        O  0.99706459  0.17126143  0.00792907    -1.83200
O328        O  0.00624222  0.20079416  0.09800945    -0.73800
O329        O  0.96481759  0.10599419  0.04035654    -0.73600
O330        O  0.93567611  0.16775951  0.99501268    -0.73200
O331        O  0.00333354  0.15895210  0.10171266    -0.73800
O332        O  0.96472811  0.20416578  0.03408174    -0.73400
O333        O  0.94024773  0.11041609  0.99048247    -0.74000
O334        O  0.01384604  0.17642183  0.91420872    -0.73400
O335        O  0.03322614  0.14142302  0.03409868    -0.74200
O336        O  0.96735787  0.15592855  0.91751065    -0.73600
O337        O  0.05261514  0.16734781  0.97946097    -0.74000
O338        O  0.05244027  0.22714440  0.97106716    -0.73900
O339        O  0.03037210  0.24047706  0.01395682    -0.73700
C340        C  0.00600662  0.18109400  0.11839155     0.78100
C341        C  0.94384127  0.09541895  0.01625137     0.78600
C342        C  0.94099299  0.18902433  0.01713144     0.77500
C343        C  0.98996876  0.16596904  0.89724599     0.77900
C344        C  0.05191897  0.15084081  0.00684043     0.79000
C345        C  0.04922887  0.24627328  0.98753855     0.78100
Zn346      Zn  0.01309374  0.20054011  0.53986922     1.49700
Zn347      Zn  0.96568158  0.15681165  0.47897002     1.49400
Zn348      Zn  0.03131083  0.17619814  0.46805038     1.49100
Zn349      Zn  0.99708157  0.13736302  0.54021382     1.49500
O350        O  0.00149906  0.16763931  0.50632951    -1.83200
O351        O  0.98243612  0.20935797  0.54123936    -0.73800
O352        O  0.97445992  0.16570385  0.41896515    -0.73600
O353        O  0.05719850  0.21849911  0.46290218    -0.73200
O354        O  0.94666085  0.17799985  0.50362010    -0.73800
O355        O  0.04620296  0.23530173  0.51664911    -0.73400
O356        O  0.01384881  0.16396604  0.41343783    -0.74000
O357        O  0.03093342  0.13229709  0.53586053    -0.73400
O358        O  0.93964886  0.11372344  0.48153954    -0.74200
O359        O  0.05399926  0.15740665  0.48213101    -0.73600
O360        O  0.96359652  0.10083058  0.52155336    -0.74000
O361        O  0.99206624  0.14591603  0.59801834    -0.73900
O362        O  0.01767912  0.19293826  0.59822153    -0.73700
C363        C  0.95765635  0.19936460  0.52759189     0.78100
C364        C  0.99328549  0.16483425  0.39766456     0.78600
C365        C  0.06024058  0.23915911  0.48441953     0.77500
C366        C  0.05101508  0.14062905  0.51068184     0.77900
C367        C  0.94275750  0.09467642  0.49853210     0.79000
C368        C  0.00391877  0.16953855  0.61675036     0.78100
Zn369      Zn  0.85911147  0.86086528  0.95624589     1.49700
Zn370      Zn  0.80652063  0.83892420  0.01607845     1.49400
Zn371      Zn  0.81364778  0.79754775  0.95518386     1.49100
Zn372      Zn  0.85286950  0.82430447  0.03158886     1.49500
O373        O  0.83290028  0.83058523  0.98955066    -1.83200
O374        O  0.85892608  0.89606539  0.97153308    -0.73800
O375        O  0.76887673  0.81952480  0.98482242    -0.73600
O376        O  0.82963137  0.80497471  0.89838981    -0.73200
O377        O  0.82348299  0.88167119  0.01501110    -0.73800
O378        O  0.84687873  0.85140911  0.89818412    -0.73400
O379        O  0.77518809  0.79066600  0.94452507    -0.74000
O380        O  0.83439163  0.78258232  0.03965871    -0.73400
O381        O  0.80274449  0.82712951  0.07596813    -0.74200
O382        O  0.80938535  0.76277631  0.98361338    -0.73600
O383        O  0.84715808  0.83839926  0.08473956    -0.74000
O384        O  0.89435000  0.84180647  0.01868203    -0.73900
O385        O  0.89853893  0.86713133  0.96406500    -0.73700
C386        C  0.84403442  0.90114985  0.99553305     0.78100
C387        C  0.76034868  0.80087314  0.95664979     0.78600
C388        C  0.83715386  0.82793209  0.87952217     0.77500
C389        C  0.81760222  0.76084459  0.01893794     0.77900
C390        C  0.82336360  0.83213054  0.09909114     0.79000
C391        C  0.90919538  0.85838924  0.99048186     0.78100
Zn392      Zn  0.84094088  0.80917500  0.53064188     1.49700
Zn393      Zn  0.85345718  0.84906350  0.45559220     1.49400
Zn394      Zn  0.79824529  0.78903809  0.45789134     1.49100
Zn395      Zn  0.80442300  0.84020387  0.51625731     1.49500
O396        O  0.82403266  0.82201477  0.49054060    -1.83200
O397        O  0.88314581  0.82733732  0.52378671    -0.73800
O398        O  0.84344627  0.83769406  0.39766311    -0.73600
O399        O  0.78963783  0.75169195  0.48429502    -0.73200
O400        O  0.89036819  0.85139480  0.46689989    -0.73800
O401        O  0.82247581  0.76653394  0.53213482    -0.73400
O402        O  0.80955910  0.79258472  0.39839119    -0.74000
O403        O  0.76415956  0.82324844  0.49215586    -0.73400
O404        O  0.85943896  0.88832583  0.46332971    -0.74200
O405        O  0.76283294  0.78936979  0.45333613    -0.73600
O406        O  0.82582104  0.88282520  0.50551471    -0.74000
O407        O  0.80444412  0.83593506  0.57805624    -0.73900
O408        O  0.83277695  0.81837725  0.58511933    -0.73700
C409        C  0.89933180  0.84286646  0.49582000     0.78100
C410        C  0.82654697  0.81483786  0.37920375     0.78600
C411        C  0.80137592  0.74662200  0.51375393     0.77500
C412        C  0.75173731  0.80326248  0.46613416     0.77900
C413        C  0.84718551  0.89854994  0.48390244     0.79000
C414        C  0.81771051  0.82748532  0.60011610     0.78100
C415        C  0.81763160  0.81393038  0.70271848     0.30700
C416        C  0.81987104  0.79941803  0.73579721    -0.35600
C417        C  0.82457065  0.81292333  0.77335258     0.16700
C418        C  0.82705280  0.83904664  0.77811135     0.22500
C419        C  0.82417006  0.85337218  0.74498104    -0.33800
C420        C  0.81924769  0.83969645  0.70721626     0.16600
O421        O  0.81566596  0.80608941  0.66470524    -0.25800
C422        C  0.81544804  0.82670057  0.64428045     0.06400
C423        C  0.81738352  0.84820771  0.66906409    -0.30700
O424        O  0.83250524  0.84810046  0.81594024    -0.22500
C425        C  0.83332960  0.82738878  0.83548908    -0.02500
C426        C  0.82834475  0.80489237  0.81054061    -0.16900
H427        H  0.81880782  0.77931710  0.73228795     0.21100
H428        H  0.82625209  0.87394442  0.74827988     0.19500
H429        H  0.81927061  0.86799964  0.66013642     0.19400
H430        H  0.82768804  0.78552570  0.81863658     0.15300
C431        C  0.83367038  0.83696160  0.20360591     0.30700
C432        C  0.84961069  0.84751155  0.23903836    -0.35600
C433        C  0.83769922  0.83200922  0.27411666     0.16700
C434        C  0.81180812  0.80758370  0.27470457     0.22500
C435        C  0.79560924  0.79703489  0.23901707    -0.33800
C436        C  0.80750493  0.81282960  0.20365723     0.16600
O437        O  0.84179857  0.84747644  0.16724216    -0.25800
C438        C  0.82044785  0.83036491  0.14333817     0.06400
C439        C  0.79835156  0.80840322  0.16427726    -0.30700
O440        O  0.80467000  0.79710763  0.31161804    -0.22500
C441        C  0.82636275  0.81522461  0.33461361    -0.02500
C442        C  0.84741230  0.83721655  0.31271122    -0.16900
H443        H  0.87008450  0.86651248  0.23919081     0.21100
H444        H  0.77520665  0.77794939  0.23883299     0.19500
H445        H  0.77933532  0.79074891  0.15192340     0.19400
H446        H  0.86667893  0.85514854  0.32394790     0.15300
C447        C  0.88554777  0.97186580  0.46836314     0.30700
C448        C  0.90779027  0.99714346  0.45337255    -0.35600
C449        C  0.91022454  0.02213369  0.46870116     0.16700
C450        C  0.89201917  0.02242928  0.49689261     0.22500
C451        C  0.86941988  0.99701925  0.51150198    -0.33800
C452        C  0.86703427  0.97189674  0.49621759     0.16600
O453        O  0.88065841  0.94625113  0.46002432    -0.25800
C454        C  0.85861557  0.92940153  0.48265535     0.06400
C455        C  0.84914887  0.94420556  0.50575593    -0.30700
O456        O  0.89997215  0.04830694  0.50984316    -0.22500
C457        C  0.92333267  0.06466043  0.48918693    -0.02500
C458        C  0.93067029  0.04948182  0.46334105    -0.16900
H459        H  0.92283919  0.99732820  0.43234137     0.21100
H460        H  0.85537346  0.99684671  0.53435647     0.19500
H461        H  0.83221494  0.93586499  0.52738608     0.19400
H462        H  0.94942617  0.05737316  0.44525777     0.15300
C463        C  0.00459623  0.17954525  0.79474896     0.30700
C464        C  0.02149261  0.19362063  0.76157810    -0.35600
C465        C  0.01020057  0.18218215  0.72358418     0.16700
C466        C  0.98417518  0.15823792  0.71850936     0.22500
C467        C  0.96689302  0.14452170  0.75178140    -0.33800
C468        C  0.97809539  0.15622141  0.78994485     0.16600
O469        O  0.01178501  0.18590078  0.83290358    -0.25800
C470        C  0.98952400  0.16677655  0.85303753     0.06400
C471        C  0.96770880  0.14781510  0.82799565    -0.30700
O472        O  0.97857393  0.15037842  0.68023749    -0.22500
C473        C  0.00115465  0.16979447  0.66075968    -0.02500
C474        C  0.02136011  0.19024506  0.68611427    -0.16900
H475        H  0.04228171  0.21193220  0.76521950     0.21100
H476        H  0.94641367  0.12576377  0.74821078     0.19500
H477        H  0.94774681  0.12988290  0.83657966     0.19400
H478        H  0.04160029  0.20801758  0.67812437     0.15300
C479        C  0.99631678  0.18501946  0.22189517     0.30700
C480        C  0.98327474  0.18776162  0.25662677    -0.35600
C481        C  0.98824651  0.17755906  0.29263151     0.16700
C482        C  0.00528762  0.16598767  0.29425975     0.22500
C483        C  0.01811872  0.16308440  0.25967164    -0.33800
C484        C  0.01283012  0.17285727  0.22375847     0.16600
O485        O  0.99321064  0.19140831  0.18457574    -0.25800
C486        C  0.00774486  0.18297165  0.16251678     0.06400
C487        C  0.02039104  0.17132499  0.18528580    -0.30700
O488        O  0.00822230  0.15904787  0.33109704    -0.22500
C489        C  0.99260349  0.16585991  0.35349751    -0.02500
C490        C  0.97943033  0.17728728  0.33123528    -0.16900
H491        H  0.96990750  0.19683170  0.25554598     0.21100
H492        H  0.03115998  0.15363491  0.26065882     0.19500
H493        H  0.03219495  0.16176643  0.17469903     0.19400
H494        H  0.96658203  0.18556277  0.34219916     0.15300
C495        C  0.89460056  0.02450537  0.99591326     0.30700
C496        C  0.87722660  0.00123008  0.97108941    -0.35600
C497        C  0.86742597  0.97457804  0.98819949     0.16700
C498        C  0.87377610  0.97106398  0.02734675     0.22500
C499        C  0.89114324  0.99435214  0.05216329    -0.33800
C500        C  0.90144939  0.02099599  0.03474875     0.16600
O501        O  0.90783616  0.05118396  0.98493401    -0.25800
C502        C  0.92363052  0.06493223  0.01694216     0.06400
C503        C  0.92054510  0.04724032  0.04887358    -0.30700
O504        O  0.86442617  0.94437436  0.03599832    -0.22500
C505        C  0.85199965  0.93063982  0.00197812    -0.02500
C506        C  0.85335613  0.94832492  0.97110753    -0.16900
H507        H  0.87278682  0.00372058  0.94001316     0.21100
H508        H  0.89731108  0.99183392  0.08218671     0.19500
H509        H  0.93145614  0.05281889  0.07766924     0.19400
H510        H  0.84665110  0.94280380  0.93994727     0.15300
C511        C  0.96996775  0.86896895  0.52046304     0.30700
C512        C  0.99367793  0.88122061  0.54589287    -0.35600
C513        C  0.01979645  0.89446688  0.52652998     0.16700
C514        C  0.02242012  0.89491914  0.48498143     0.22500
C515        C  0.99874216  0.88262245  0.45957259    -0.33800
C516        C  0.97266282  0.87007481  0.47890559     0.16600
O517        O  0.94363788  0.85787225  0.53199705    -0.25800
C518        C  0.92935423  0.85214195  0.49739244     0.06400
C519        C  0.94633313  0.85929915  0.46341767    -0.30700
O520        O  0.04874741  0.90978676  0.47323711    -0.22500
C521        C  0.06319095  0.91934265  0.50763480    -0.02500
C522        C  0.04628609  0.91049727  0.54178094    -0.16900
H523        H  0.99188632  0.88159358  0.57847475     0.21100
H524        H  0.00055375  0.88393931  0.42695064     0.19500
H525        H  0.94025597  0.85793402  0.43195913     0.19400
H526        H  0.05255409  0.91588103  0.57313145     0.15300
C527        C  0.11414318  0.08073411  0.53139239     0.30700
C528        C  0.09307976  0.08367438  0.55010625    -0.35600
C529        C  0.08738134  0.10353526  0.53330214     0.16700
C530        C  0.10135121  0.11954864  0.50011780     0.22500
C531        C  0.12282266  0.11681489  0.48149780    -0.33800
C532        C  0.12861908  0.09680523  0.49848731     0.16600
O533        O  0.12138903  0.06212866  0.54110607    -0.25800
C534        C  0.14101750  0.06614292  0.51446419     0.06400
C535        C  0.14655561  0.08762065  0.48712165    -0.30700
O536        O  0.09112030  0.13553394  0.48810272    -0.22500
C537        C  0.07045574  0.12963870  0.51415355    -0.02500
C538        C  0.06739707  0.10997197  0.54294609    -0.16900
H539        H  0.08134260  0.07072193  0.57545549     0.21100
H540        H  0.13369075  0.12885641  0.45500774     0.19500
H541        H  0.16070344  0.09451936  0.46164203     0.19400
H542        H  0.05186040  0.10082190  0.56657707     0.15300
C543        C  0.16646579  0.99535746  0.72162221     0.30700
C544        C  0.15500523  0.00111575  0.75531227    -0.35600
C545        C  0.17002575  0.00629709  0.79136673     0.16700
C546        C  0.19465356  0.00579699  0.79440203     0.22500
C547        C  0.20608308  0.99977425  0.76054658    -0.33800
C548        C  0.19096711  0.99455926  0.72421961     0.16600
O549        O  0.15645167  0.99133513  0.68465229    -0.25800
C550        C  0.17456348  0.98769464  0.66308965     0.06400
C551        C  0.19645923  0.98927554  0.68601471    -0.30700
O552        O  0.20457950  0.01048255  0.83175008    -0.22500
C553        C  0.18595192  0.01397215  0.85250159    -0.02500
C554        C  0.16412194  0.01166097  0.82887393    -0.16900
H555        H  0.13579069  0.00172185  0.75345655     0.21100
H556        H  0.22532959  0.99923746  0.76237590     0.19500
H557        H  0.21440822  0.98813134  0.67572032     0.19400
H558        H  0.14590098  0.01260860  0.83834350     0.15300
C559        C  0.18374613  0.01132825  0.29474302     0.30700
C560        C  0.18945083  0.02691338  0.25918103    -0.35600
C561        C  0.18212552  0.01131350  0.22296057     0.16700
C562        C  0.17030837  0.98235115  0.22130783     0.22500
C563        C  0.16457334  0.96670690  0.25698041    -0.33800
C564        C  0.17159030  0.98230704  0.29332575     0.16600
O565        O  0.18781559  0.02148079  0.33207114    -0.25800
C566        C  0.17787762  0.99858527  0.35483067     0.06400
C567        C  0.16761465  0.97370835  0.33233185    -0.30700
O568        O  0.16508499  0.97227650  0.18375901    -0.22500
C569        C  0.17352021  0.99520219  0.16131190    -0.02500
C570        C  0.18421975  0.01991373  0.18427077    -0.16900
H571        H  0.19852730  0.04961701  0.25969132     0.21100
H572        H  0.15489773  0.94393533  0.25651040     0.19500
H573        H  0.15803846  0.95226585  0.34326514     0.19400
H574        H  0.19250248  0.04132707  0.17381912     0.15300
C575        C  0.98136009  0.89105079  0.97016557     0.30700
C576        C  0.00635250  0.90992947  0.95062148    -0.35600
C577        C  0.03119566  0.91424171  0.96866712     0.16700
C578        C  0.03172623  0.90084916  0.00352783     0.22500
C579        C  0.00654507  0.88147219  0.02278370    -0.33800
C580        C  0.98154811  0.87728735  0.00482828     0.16600
O581        O  0.95602109  0.88574808  0.96012590    -0.25800
C582        C  0.93951272  0.86823828  0.98860237     0.06400
C583        C  0.95425401  0.86211117  0.01713285    -0.30700
O584        O  0.05764380  0.91028544  0.01705285    -0.22500
C585        C  0.07377304  0.92996785  0.99036156    -0.02500
C586        C  0.05829897  0.93302013  0.95961787    -0.16900
H587        H  0.00650647  0.92145999  0.92410122     0.21100
H588        H  0.00648673  0.87133185  0.05076814     0.19500
H589        H  0.94617875  0.84927720  0.04391883     0.19400
H590        H  0.06590849  0.94824997  0.93538031     0.15300
C591        C  0.09640957  0.12464595  0.02798954     0.30700
C592        C  0.10845926  0.11267602  0.05217854    -0.35600
C593        C  0.12224785  0.10092772  0.03151099     0.16700
C594        C  0.12374615  0.10063895  0.98985272     0.22500
C595        C  0.11250083  0.11345066  0.96571026    -0.33800
C596        C  0.09899613  0.12551869  0.98642407     0.16600
O597        O  0.08018441  0.13418988  0.04071667    -0.25800
C598        C  0.07273187  0.14181137  0.00698345     0.06400
C599        C  0.08406246  0.13722291  0.97227324    -0.30700
O600        O  0.13496682  0.08589267  0.97676046    -0.22500
C601        C  0.14124746  0.07714481  0.01049012    -0.02500
C602        C  0.13404370  0.08605570  0.04548761    -0.16900
H603        H  0.10619737  0.11152291  0.08472437     0.21100
H604        H  0.11319504  0.11299099  0.93301954     0.19500
H605        H  0.08018188  0.14017668  0.94109621     0.19400
H606        H  0.13566604  0.08082550  0.07649793     0.15300
C607        C  0.69410309  0.78550464  0.91999414     0.30700
C608        C  0.66864504  0.78541128  0.91936545    -0.35600
C609        C  0.64878533  0.76777108  0.89017443     0.16700
C610        C  0.65378685  0.75166356  0.86305265     0.22500
C611        C  0.67937335  0.75213302  0.86320398    -0.33800
C612        C  0.69896076  0.76935214  0.89278034     0.16600
O613        O  0.71489990  0.79892431  0.94638404    -0.25800
C614        C  0.73318395  0.79103879  0.93599629     0.06400
C615        C  0.72432092  0.77274181  0.90277621    -0.30700
O616        O  0.63136223  0.73441047  0.84142403    -0.22500
C617        C  0.61158825  0.73937996  0.85482320    -0.02500
C618        C  0.62134714  0.76015170  0.88493397    -0.16900
H619        H  0.66412190  0.79721843  0.94129651     0.21100
H620        H  0.68319127  0.73888961  0.84303416     0.19500
H621        H  0.73493005  0.76304223  0.88838011     0.19400
H622        H  0.60938573  0.76695236  0.90263500     0.15300
C623        C  0.51287856  0.65958417  0.61586776     0.30700
C624        C  0.52503128  0.65615496  0.58076842    -0.35600
C625        C  0.50935957  0.65071832  0.54505671     0.16700
C626        C  0.48366286  0.64916956  0.54386479     0.22500
C627        C  0.47119491  0.65191532  0.57909851    -0.33800
C628        C  0.48680707  0.65717826  0.61481104     0.16600
O629        O  0.52401643  0.66520554  0.65246861    -0.25800
C630        C  0.50478227  0.66635098  0.67509945     0.06400
C631        C  0.48115312  0.66140316  0.65330577    -0.30700
O632        O  0.47426491  0.64727861  0.50667495    -0.22500
C633        C  0.49381721  0.64682453  0.48394804    -0.02500
C634        C  0.51605662  0.64875369  0.50609741    -0.16900
H635        H  0.54555924  0.65823727  0.58111454     0.21100
H636        H  0.45115071  0.65092191  0.57851570     0.19500
H637        H  0.46236626  0.66059120  0.66439580     0.19400
H638        H  0.53544182  0.65100806  0.49485860     0.15300
C639        C  0.51692741  0.67435527  0.11795637     0.30700
C640        C  0.53383680  0.68037365  0.08370079    -0.35600
C641        C  0.51976867  0.66805856  0.04729445     0.16700
C642        C  0.49100855  0.65079021  0.04464255     0.22500
C643        C  0.47402459  0.64498667  0.07889599    -0.33800
C644        C  0.48811604  0.65755239  0.11531075     0.16600
O645        O  0.52582324  0.68284430  0.15527790    -0.25800
C646        C  0.50239925  0.67161553  0.17685115     0.06400
C647        C  0.47826945  0.65582904  0.15351658    -0.30700
O648        O  0.48228141  0.64253349  0.00713258    -0.22500
C649        C  0.50579646  0.65469819  0.98565320    -0.02500
C650        C  0.52968129  0.67093534  0.00900215    -0.16900
H651        H  0.55641449  0.69380965  0.08529874     0.21100
H652        H  0.45141883  0.63181109  0.07722048     0.19500
H653        H  0.45674720  0.64372723  0.16358105     0.19400
H654        H  0.55106532  0.68409622  0.99886135     0.15300
C655        C  0.68344033  0.78712316  0.43798011     0.30700
C656        C  0.65603145  0.78228870  0.44278907    -0.35600
C657        C  0.63675669  0.76697240  0.41142155     0.16700
C658        C  0.64409934  0.75743836  0.37753357     0.22500
C659        C  0.67136466  0.76251579  0.37254195    -0.33800
C660        C  0.69034294  0.77737169  0.40390543     0.16600
O661        O  0.70434749  0.79877032  0.46475353    -0.25800
C662        C  0.72459503  0.79603719  0.44737414     0.06400
C663        C  0.71692674  0.78306236  0.40953024    -0.30700
O664        O  0.62257373  0.74168777  0.35351887    -0.22500
C665        C  0.60089469  0.74095917  0.37195648    -0.02500
C666        C  0.60848481  0.75640985  0.40813257    -0.16900
H667        H  0.64983466  0.78889171  0.46981743     0.21100
H668        H  0.67707958  0.75428550  0.34676952     0.19500
H669        H  0.72897133  0.77757909  0.38959678     0.19400
H670        H  0.59489570  0.75821552  0.42991610     0.15300
C671        C  0.30800869  0.53364293  0.81576033     0.30700
C672        C  0.33164280  0.54672730  0.79062603    -0.35600
C673        C  0.35787316  0.56057653  0.81028286     0.16700
C674        C  0.36074585  0.56096913  0.85181753     0.22500
C675        C  0.33715573  0.54804612  0.87692097    -0.33800
C676        C  0.31094965  0.53472680  0.85731943     0.16600
O677        O  0.28149790  0.52194458  0.80408335    -0.25800
C678        C  0.26731489  0.51558211  0.83863510     0.06400
C679        C  0.28461669  0.52322810  0.87262163    -0.30700
O680        O  0.38712477  0.57632225  0.86389972    -0.22500
C681        C  0.40132990  0.58619686  0.82970878    -0.02500
C682        C  0.38421963  0.57723025  0.79543729    -0.16900
H683        H  0.32968602  0.54719379  0.75808233     0.21100
H684        H  0.33907767  0.54934903  0.90957537     0.19500
H685        H  0.27872286  0.52209587  0.90405999     0.19400
H686        H  0.39027603  0.58294829  0.76426185     0.15300
C687        C  0.07435706  0.31526401  0.95484957     0.30700
C688        C  0.07290276  0.33963411  0.94843591    -0.35600
C689        C  0.09171831  0.35866008  0.92017976     0.16700
C690        C  0.11092069  0.35434436  0.89964388     0.22500
C691        C  0.11219348  0.32972153  0.90581769    -0.33800
C692        C  0.09321494  0.31053110  0.93408256     0.16600
O693        O  0.05772824  0.29409514  0.97844674    -0.25800
C694        C  0.06589977  0.27538786  0.97280018     0.06400
C695        C  0.08797224  0.28451154  0.94555233    -0.30700
O696        O  0.12728650  0.37573894  0.87582541    -0.22500
C697        C  0.11819700  0.39381094  0.88116821    -0.02500
C698        C  0.09599500  0.38406365  0.90821716    -0.16900
H699        H  0.05799476  0.34342334  0.96419995     0.21100
H700        H  0.12688340  0.32577827  0.88973409     0.19500
H701        H  0.09761562  0.27297374  0.93413905     0.19400
H702        H  0.08526928  0.39473855  0.91883064     0.15300
C703        C  0.17107175  0.50485358  0.55543643     0.30700
C704        C  0.18705296  0.51952718  0.58947296    -0.35600
C705        C  0.17886760  0.50492969  0.62604879     0.16700
C706        C  0.15660064  0.47763671  0.62916388     0.22500
C707        C  0.14026577  0.46306614  0.59508685    -0.33800
C708        C  0.14830041  0.47782660  0.55839936     0.16600
O709        O  0.17593820  0.51407254  0.51798814    -0.25800
C710        C  0.15571539  0.49294248  0.49661717     0.06400
C711        C  0.13777509  0.46985960  0.52014773    -0.30700
O712        O  0.15248942  0.46839936  0.66678051    -0.22500
C713        C  0.17236804  0.49017813  0.68778649    -0.02500
C714        C  0.18922559  0.51343195  0.66399243    -0.16900
H715        H  0.20475570  0.54083707  0.58754047     0.21100
H716        H  0.12254493  0.44177429  0.59703114     0.19500
H717        H  0.12054215  0.44963477  0.51017218     0.19400
H718        H  0.20600478  0.53403310  0.67361934     0.15300
C719        C  0.14870976  0.48627745  0.05457820     0.30700
C720        C  0.13389715  0.48204625  0.09057604    -0.35600
C721        C  0.14668115  0.47943685  0.12557327     0.16700
C722        C  0.17211001  0.48039927  0.12547225     0.22500
C723        C  0.18697165  0.48461014  0.08933125    -0.33800
C724        C  0.17439297  0.48778943  0.05432418     0.16600
O725        O  0.14094767  0.49002799  0.01847452    -0.25800
C726        C  0.16216029  0.49446045  0.99483765     0.06400
C727        C  0.18354982  0.49334182  0.01550485    -0.30700
O728        O  0.18085046  0.47927359  0.16234537    -0.22500
C729        C  0.16071778  0.47773664  0.18604532    -0.02500
C730        C  0.13907900  0.47778893  0.16479195    -0.16900
H731        H  0.11415705  0.48164290  0.09143949     0.21100
H732        H  0.20728195  0.48622868  0.08872451     0.19500
H733        H  0.20288091  0.49591802  0.00348251     0.19400
H734        H  0.12103354  0.47804873  0.17681762     0.15300
C735        C  0.30569179  0.53397472  0.36101255     0.30700
C736        C  0.33101666  0.54776788  0.38293444    -0.35600
C737        C  0.35565076  0.55931627  0.35995573     0.16700
C738        C  0.35532665  0.55788167  0.31822673     0.22500
C739        C  0.33005796  0.54326322  0.29646031    -0.33800
C740        C  0.30546954  0.53124385  0.31945108     0.16600
O741        O  0.28032125  0.52438289  0.37578382    -0.25800
C742        C  0.26364141  0.51473616  0.34336629     0.06400
C743        C  0.27809805  0.51814684  0.30758224    -0.30700
O744        O  0.38053918  0.57304640  0.30257277    -0.22500
C745        C  0.39732983  0.58363974  0.33467343    -0.02500
C746        C  0.38308143  0.57570701  0.37120905    -0.16900
H747        H  0.33148672  0.55041358  0.41546489     0.21100
H748        H  0.32956862  0.54239389  0.26372413     0.19500
H749        H  0.26981912  0.51376041  0.27701318     0.19400
H750        H  0.39150758  0.58278215  0.40137902     0.15300
C751        C  0.11096344  0.35566365  0.42552331     0.30700
C752        C  0.09747073  0.33980191  0.45976820    -0.35600
C753        C  0.09311200  0.31246213  0.46054564     0.16700
C754        C  0.10115629  0.30123462  0.42954926     0.22500
C755        C  0.11526332  0.31744153  0.39539911    -0.33800
C756        C  0.11989618  0.34509200  0.39475694     0.16600
O757        O  0.11574908  0.38113137  0.41813367    -0.25800
C758        C  0.12825601  0.38742976  0.38234868     0.06400
C759        C  0.13165741  0.36588898  0.36621093    -0.30700
O760        O  0.09213226  0.27413031  0.43488378    -0.22500
C761        C  0.07849812  0.26819726  0.46997770    -0.02500
C762        C  0.07870635  0.29138146  0.48734988    -0.16900
H763        H  0.09008722  0.34793933  0.48358747     0.21100
H764        H  0.12132423  0.30881554  0.37056672     0.19500
H765        H  0.14067435  0.36535104  0.33746162     0.19400
H766        H  0.06781832  0.29201232  0.51412477     0.15300
C767        C  0.22488133  0.91240110  0.94598991     0.30700
C768        C  0.22068758  0.88702778  0.92827831    -0.35600
C769        C  0.24359195  0.88883277  0.90669465     0.16700
C770        C  0.26872653  0.91389301  0.90315955     0.22500
C771        C  0.27286953  0.93896671  0.92061806    -0.33800
C772        C  0.25025406  0.93711439  0.94204527     0.16600
O773        O  0.20616477  0.91637423  0.96562353    -0.25800
C774        C  0.22005111  0.94400073  0.97438317     0.06400
C775        C  0.24756529  0.95762942  0.96056885    -0.30700
O776        O  0.28799065  0.91092431  0.88434797    -0.22500
C777        C  0.27536994  0.88360373  0.87504238    -0.02500
C778        C  0.24749974  0.86869318  0.88790521    -0.16900
H779        H  0.20100782  0.86732634  0.93105923     0.21100
H780        H  0.29259720  0.95865787  0.91794757     0.19500
H781        H  0.26293278  0.97998876  0.96170533     0.19400
H782        H  0.23304546  0.84614198  0.88643291     0.15300
C783        C  0.21388692  0.64466988  0.83634240     0.30700
C784        C  0.21547374  0.66860641  0.81846100    -0.35600
C785        C  0.23427720  0.69474380  0.83668816     0.16700
C786        C  0.25026196  0.69694049  0.87014729     0.22500
C787        C  0.24834933  0.67312364  0.88829681    -0.33800
C788        C  0.22973895  0.64718921  0.87010074     0.16600
O789        O  0.19920668  0.61833057  0.82300527    -0.25800
C790        C  0.20578806  0.60398967  0.84875346     0.06400
C791        C  0.22462205  0.62089734  0.87865123    -0.30700
O792        O  0.26834722  0.72324171  0.88009708    -0.22500
C793        C  0.26396590  0.73835732  0.85299577    -0.02500
C794        C  0.24279998  0.72180343  0.82530063    -0.16900
H795        H  0.20369227  0.66705837  0.79141562     0.21100
H796        H  0.26135851  0.67481090  0.91391518     0.19500
H797        H  0.23391999  0.61480735  0.90244964     0.19400
H798        H  0.23612283  0.72863785  0.79910708     0.15300
C799        C  0.45465684  0.75899050  0.85849600     0.30700
C800        C  0.44204329  0.77065369  0.88237256    -0.35600
C801        C  0.42987468  0.78390886  0.86128273     0.16700
C802        C  0.43042606  0.78595244  0.81965740     0.22500
C803        C  0.44292432  0.77421781  0.79584159    -0.33800
C804        C  0.45465958  0.76058568  0.81684077     0.16600
O805        O  0.46583742  0.74418003  0.87154167    -0.25800
C806        C  0.47279365  0.73603576  0.83768978     0.06400
C807        C  0.46621712  0.74551751  0.80284470    -0.30700
O808        O  0.41661618  0.79802171  0.80612972    -0.22500
C809        C  0.40685022  0.80355920  0.83950164    -0.02500
C810        C  0.41448470  0.79528180  0.87470005    -0.16900
H811        H  0.44098587  0.76873413  0.91494841     0.21100
H812        H  0.44268048  0.77483602  0.76315715     0.19500
H813        H  0.46880615  0.74115135  0.77169683     0.19400
H814        H  0.40869282  0.79658416  0.90553483     0.15300
C815        C  0.33897125  0.85470308  0.62947387     0.30700
C816        C  0.35677404  0.86806410  0.59651352    -0.35600
C817        C  0.34631482  0.85597879  0.55832041     0.16700
C818        C  0.32007263  0.83242844  0.55320059     0.22500
C819        C  0.30204715  0.81938763  0.58605259    -0.33800
C820        C  0.31248161  0.83150585  0.62423839     0.16600
O821        O  0.34574089  0.86071186  0.66789204    -0.25800
C822        C  0.32322634  0.84148389  0.68769428     0.06400
C823        C  0.30162914  0.82286271  0.66211127    -0.30700
O824        O  0.31465587  0.82425265  0.51515891    -0.22500
C825        C  0.33761754  0.84275134  0.49536270    -0.02500
C826        C  0.35813279  0.86309604  0.52069601    -0.16900
H827        H  0.37766704  0.88608089  0.60055877     0.15700
H828        H  0.28158732  0.80069244  0.58217189     0.19500
H829        H  0.28199333  0.80432876  0.67019671     0.19400
H830        H  0.37847214  0.88062254  0.51258947     0.15300
C831        C  0.33976410  0.83659712  0.05388835     0.30700
C832        C  0.33190830  0.81835943  0.08681127    -0.35600
C833        C  0.32857964  0.82905590  0.12344003     0.16700
C834        C  0.33272349  0.85591576  0.12763866     0.22500
C835        C  0.34091064  0.87435811  0.09459934    -0.33800
C836        C  0.34424046  0.86360838  0.05770455     0.16600
O837        O  0.34227039  0.83010304  0.01649786    -0.25800
C838        C  0.34853933  0.85317680  0.99578432     0.06400
C839        C  0.35031491  0.87492318  0.01982614    -0.30700
O840        O  0.32905826  0.86161686  0.16520816    -0.22500
C841        C  0.32260053  0.83809383  0.18503739    -0.02500
C842        C  0.32196472  0.81717158  0.16053700    -0.16900
H843        H  0.32832327  0.79713638  0.08393260     0.21100
H844        H  0.34426902  0.89548892  0.09740688     0.19500
H845        H  0.35387938  0.89530800  0.01043655     0.19400
H846        H  0.31829883  0.79660904  0.16921786     0.15300
C847        C  0.22938683  0.86290239  0.42721499     0.30700
C848        C  0.22228155  0.86974988  0.46462257    -0.35600
C849        C  0.20796426  0.88466557  0.46289486     0.16700
C850        C  0.20023343  0.89126138  0.42672038     0.22500
C851        C  0.20730739  0.88440233  0.38939376    -0.33800
C852        C  0.22255933  0.87050164  0.39112773     0.16600
O853        O  0.24555147  0.85205387  0.42197998    -0.25800
C854        C  0.24957118  0.85318027  0.38221586     0.06400
C855        C  0.23579496  0.86448290  0.36134407    -0.30700
O856        O  0.18887716  0.90699571  0.43176656    -0.22500
C857        C  0.18971537  0.91106053  0.47152636    -0.02500
C858        C  0.20146168  0.89774222  0.49265507    -0.16900
H859        H  0.22901043  0.86532185  0.49300626     0.21100
H860        H  0.20275517  0.89104478  0.36104461     0.19500
H861        H  0.23662252  0.86894634  0.32937455     0.19400
H862        H  0.20582333  0.89873517  0.52474464     0.15300
C863        C  0.23721695  0.68678343  0.31804588     0.30700
C864        C  0.22509405  0.66221014  0.29410882    -0.35600
C865        C  0.21140430  0.63666183  0.31511560     0.16700
C866        C  0.21021006  0.63539610  0.35682071     0.22500
C867        C  0.22155722  0.65995387  0.38068271    -0.33800
C868        C  0.23485537  0.68547541  0.35964944     0.16600
O869        O  0.25284807  0.71283958  0.30504027    -0.25800
C870        C  0.26008092  0.72836277  0.33872660     0.06400
C871        C  0.24932523  0.71252455  0.37356809    -0.30700
O872        O  0.19934261  0.60942854  0.37024102    -0.22500
C873        C  0.19291360  0.59386062  0.33668326    -0.02500
C874        C  0.19962581  0.60957975  0.30147565    -0.16900
H875        H  0.22709286  0.66294093  0.26152841     0.21100
H876        H  0.22102684  0.65923074  0.41338257     0.19500
H877        H  0.25293982  0.71981464  0.40468643     0.19400
H878        H  0.19799775  0.60227800  0.27056339     0.15300
C879        C  0.44074037  0.75318779  0.31816323     0.30700
C880        C  0.42379139  0.76044037  0.29613396    -0.35600
C881        C  0.41941164  0.78109560  0.31351945     0.16700
C882        C  0.43075006  0.79392357  0.35028352     0.22500
C883        C  0.44813051  0.78684222  0.37230317    -0.33800
C884        C  0.45260631  0.76602320  0.35474238     0.16600
O885        O  0.44650423  0.73355070  0.30786890    -0.25800
C886        C  0.46251623  0.73371018  0.33794729     0.06400
C887        C  0.46708900  0.75350932  0.36810529    -0.30700
O888        O  0.42157848  0.81089959  0.36213645    -0.22500
C889        C  0.40427165  0.80874885  0.33234713    -0.02500
C890        C  0.40243505  0.79068630  0.30135618    -0.16900
H891        H  0.41399448  0.75006422  0.26781434     0.21100
H892        H  0.45683651  0.79624005  0.40154691     0.19500
H893        H  0.47885138  0.75764004  0.39602968     0.19400
H894        H  0.38899976  0.78410171  0.27482579     0.15300
C895        C  0.54998915  0.57685086  0.74442244     0.30700
C896        C  0.56328556  0.57462179  0.70990417    -0.35600
C897        C  0.56582439  0.55068694  0.70727745     0.16700
C898        C  0.55616666  0.53030074  0.73680015     0.22500
C899        C  0.54211728  0.53220888  0.77116849    -0.33800
C900        C  0.53942033  0.55630930  0.77373942     0.16600
O901        O  0.54692979  0.59836259  0.75340844    -0.25800
C902        C  0.53393561  0.59179612  0.78882234     0.06400
C903        C  0.52845018  0.56566461  0.80311936    -0.30700
O904        O  0.56421808  0.51171112  0.73043914    -0.22500
C905        C  0.57891479  0.52029787  0.69626835    -0.02500
C906        C  0.58022038  0.54422490  0.68033737    -0.16900
H907        H  0.57205007  0.59104401  0.68736626     0.21100
H908        H  0.53490278  0.51667717  0.79495052     0.19500
H909        H  0.51847391  0.55544822  0.83110650     0.19400
H910        H  0.59236637  0.55664893  0.65485708     0.15300
C911        C  0.75880105  0.67554194  0.54177389     0.30700
C912        C  0.73375533  0.64945568  0.54339481    -0.35600
C913        C  0.73186941  0.63116337  0.57423107     0.16700
C914        C  0.75317390  0.63755675  0.60160464     0.22500
C915        C  0.77846332  0.66374054  0.59979617    -0.33800
C916        C  0.78026385  0.68233467  0.56907251     0.16600
O917        O  0.76398475  0.69658673  0.51736009    -0.25800
C918        C  0.78919077  0.71737829  0.52893632     0.06400
C919        C  0.80035087  0.70961561  0.56094158    -0.30700
O920        O  0.74631715  0.61711674  0.62841026    -0.22500
C921        C  0.72012038  0.59760398  0.61805331    -0.02500
C922        C  0.71034399  0.60543629  0.58455386    -0.16900
H923        H  0.71650506  0.64409697  0.52274616     0.21100
H924        H  0.79526678  0.66953569  0.62143818     0.19500
H925        H  0.81973630  0.72271691  0.57734230     0.19400
H926        H  0.69009508  0.59366807  0.56967245     0.15300
C927        C  0.64713263  0.49589282  0.87672775     0.30700
C928        C  0.62940361  0.48699112  0.91066615    -0.35600
C929        C  0.64269680  0.49578120  0.94860112     0.16700
C930        C  0.67146490  0.51199909  0.95245055     0.22500
C931        C  0.68911499  0.52114953  0.91859077    -0.33800
C932        C  0.67584823  0.51254838  0.88077108     0.16600
O933        O  0.63922252  0.48979665  0.83860702    -0.25800
C934        C  0.66309518  0.50289220  0.81783611     0.06400
C935        C  0.68664319  0.51747014  0.84252998    -0.30700
O936        O  0.67972411  0.51672255  0.99042936    -0.22500
C937        C  0.65609071  0.50362770  0.01161958    -0.02500
C938        C  0.63219443  0.49032740  0.98718983    -0.16900
H939        H  0.60685073  0.47387904  0.90767335     0.21100
H940        H  0.71169986  0.53383243  0.92161361     0.19500
H941        H  0.70842129  0.52963546  0.83366740     0.19400
H942        H  0.61053035  0.47770914  0.99641192     0.15300
C943        C  0.67634290  0.52603219  0.37986460     0.30700
C944        C  0.66552438  0.53276997  0.41372140    -0.35600
C945        C  0.66179665  0.51676962  0.44853171     0.16700
C946        C  0.66878962  0.49600162  0.45016848     0.22500
C947        C  0.67984245  0.48947056  0.41655800    -0.33800
C948        C  0.68312601  0.50510753  0.38164910     0.16600
O949        O  0.67856414  0.53599004  0.34296177    -0.25800
C950        C  0.68675365  0.52113010  0.32096138     0.06400
C951        C  0.69014304  0.50182374  0.34357225    -0.30700
O952        O  0.66397594  0.48394819  0.48584886    -0.22500
C953        C  0.65343374  0.49689216  0.50732234    -0.02500
C954        C  0.65153452  0.51748760  0.48564014    -0.16900
H955        H  0.65952393  0.54868263  0.41259223     0.21100
H956        H  0.68482338  0.47280155  0.41724466     0.19500
H957        H  0.69482334  0.48602353  0.33282090     0.19400
H958        H  0.64477576  0.53174325  0.49625290     0.15300
C959        C  0.54863902  0.57120010  0.26718368     0.30700
C960        C  0.54552156  0.54637553  0.24891713    -0.35600
C961        C  0.57003295  0.54851513  0.23210141     0.16700
C962        C  0.59560915  0.57328933  0.23393534     0.22500
C963        C  0.59870516  0.59772417  0.25208830    -0.33800
C964        C  0.57447454  0.59567562  0.26822449     0.16600
O965        O  0.52863078  0.57500681  0.28273177    -0.25800
C966        C  0.54217444  0.60230724  0.29348492     0.06400
C967        C  0.57063951  0.61592206  0.28515940    -0.30700
O968        O  0.61598095  0.57099252  0.21769136    -0.22500
C969        C  0.60375920  0.54445485  0.20451480    -0.02500
C970        C  0.57498326  0.52926218  0.21251986    -0.16900
H971        H  0.52542378  0.52698146  0.24735268     0.21100
H972        H  0.61873683  0.61723472  0.25314068     0.19500
H973        H  0.58614371  0.63804562  0.28941355     0.19400
H974        H  0.56026922  0.50715198  0.20652170     0.15300
C975        C  0.76513824  0.65503552  0.11322067     0.30700
C976        C  0.77927821  0.68438744  0.11932933    -0.35600
C977        C  0.78907732  0.70090436  0.08434314     0.16700
C978        C  0.78457836  0.68943823  0.04586469     0.22500
C979        C  0.77067713  0.66012914  0.03979743    -0.33800
C980        C  0.76163100  0.64365026  0.07482600     0.16600
O981        O  0.75363508  0.63549446  0.14141663    -0.25800
C982        C  0.74327860  0.61134168  0.12075704     0.06400
C983        C  0.74772833  0.61519908  0.07931022    -0.30700
O984        O  0.79439857  0.70883606  0.01738719    -0.22500
C985        C  0.80594459  0.73306066  0.03800172    -0.02500
C986        C  0.80327803  0.72938389  0.07971573    -0.16900
H987        H  0.78237645  0.69370216  0.14920822     0.21100
H988        H  0.76711441  0.65080588  0.00986455     0.19500
H989        H  0.74062053  0.59923770  0.05572780     0.19400
H990        H  0.80987883  0.74541542  0.10312364     0.15300
C991        C  0.53062064  0.29432185  0.66967973     0.30700
C992        C  0.53317809  0.31841035  0.68917484    -0.35600
C993        C  0.55390580  0.34465337  0.67378931     0.16700
C994        C  0.57060437  0.34673833  0.64147152     0.22500
C995        C  0.56781392  0.32294464  0.62189407    -0.33800
C996        C  0.54739660  0.29704954  0.63718101     0.16600
O997        O  0.51467811  0.26765458  0.68076083    -0.25800
C998        C  0.52154218  0.25355506  0.65468680     0.06400
C999        C  0.54159735  0.27086938  0.62692630    -0.30700
O1000       O  0.58976745  0.37283090  0.63333962    -0.22500
C1001       C  0.58557467  0.38804716  0.66060208    -0.02500
C1002       C  0.56342366  0.37175989  0.68667312    -0.16900
H1003       H  0.52073899  0.31683873  0.71529617     0.21100
H1004       H  0.58140388  0.32453342  0.59730860     0.19500
H1005       H  0.55176669  0.26512969  0.60395683     0.19400
H1006       H  0.55616888  0.37876670  0.71210694     0.15300
C1007       C  0.44111885  0.96752786  0.75134361     0.30700
C1008       C  0.44961203  0.98079446  0.71368362    -0.35600
C1009       C  0.46443359  0.01035000  0.71462276     0.16700
C1010       C  0.47125028  0.02559806  0.75038681     0.22500
C1011       C  0.46275482  0.01235814  0.78793777    -0.33800
C1012       C  0.44710969  0.98289434  0.78689436     0.16600
O1013       O  0.42451866  0.94033622  0.75709837    -0.25800
C1014       C  0.41949552  0.93831334  0.79662701     0.06400
C1015       C  0.43291141  0.96411115  0.81680843    -0.30700
O1016       O  0.48306646  0.05281493  0.74441851    -0.22500
C1017       C  0.48342261  0.05515827  0.70445659    -0.02500
C1018       C  0.47209703  0.02944942  0.68409305    -0.16900
H1019       H  0.44358013  0.96891384  0.68554941     0.21100
H1020       H  0.46660402  0.02427870  0.81578944     0.19500
H1021       H  0.43131125  0.96847576  0.84834883     0.19400
H1022       H  0.46853906  0.02535336  0.65191988     0.15300
C1023       C  0.31344678  0.08621506  0.56657279     0.30700
C1024       C  0.33292095  0.10762541  0.59296831    -0.35600
C1025       C  0.35702546  0.10630083  0.60341276     0.16700
C1026       C  0.36145615  0.08537542  0.58861392     0.22500
C1027       C  0.34223669  0.06424652  0.56241347    -0.33800
C1028       C  0.31840102  0.06557076  0.55211582     0.16600
O1029       O  0.28838410  0.08166132  0.55535357    -0.25800
C1030       C  0.27745636  0.05791463  0.53323124     0.06400
C1031       C  0.29535517  0.04718469  0.53039394    -0.30700
O1032       O  0.38518522  0.08795163  0.60139902    -0.22500
C1033       C  0.39652965  0.11080645  0.62506990    -0.02500
C1034       C  0.37987993  0.12318834  0.62761454    -0.16900
H1035       H  0.32927825  0.12381415  0.60513847     0.21100
H1036       H  0.34548245  0.04756787  0.55121011     0.19500
H1037       H  0.29100031  0.02734104  0.51691727     0.19400
H1038       H  0.38437082  0.14224469  0.64374577     0.15300
C1039       C  0.49824635  0.14357865  0.95214166     0.30700
C1040       C  0.50394989  0.13385984  0.91618651    -0.35600
C1041       C  0.49756595  0.14289485  0.88021561     0.16700
C1042       C  0.48595761  0.15996996  0.87930404     0.22500
C1043       C  0.48034280  0.16977829  0.91529550    -0.33800
C1044       C  0.48710617  0.16106677  0.95129235     0.16600
O1045       O  0.50336675  0.13851840  0.98930051    -0.25800
C1046       C  0.49567261  0.15326507  0.01245255     0.06400
C1047       C  0.48540036  0.16762656  0.99039045    -0.30700
O1048       O  0.48227505  0.16623950  0.84204308    -0.22500
C1049       C  0.49196112  0.15318165  0.81896883    -0.02500
C1050       C  0.50170657  0.13842017  0.84116001    -0.16900
H1051       H  0.51322207  0.12063065  0.91620429     0.21100
H1052       H  0.47181841  0.18366493  0.91527030     0.19500
H1053       H  0.47795490  0.18117628  0.00164565     0.19400
H1054       H  0.51094465  0.12643200  0.82998251     0.15300
C1055       C  0.51169477  0.16549590  0.37937070     0.30700
C1056       C  0.52968321  0.17414719  0.41297583    -0.35600
C1057       C  0.51790931  0.15958348  0.44882201     0.16700
C1058       C  0.49042276  0.13780198  0.45136867     0.22500
C1059       C  0.47239853  0.12922586  0.41773503    -0.33800
C1060       C  0.48407488  0.14404673  0.38197024     0.16600
O1061       O  0.51855650  0.17561930  0.34261176    -0.25800
C1062       C  0.49498081  0.16066978  0.32145921     0.06400
C1063       C  0.47272776  0.14083442  0.34438752    -0.30700
O1064       O  0.48334086  0.12836453  0.48849340    -0.22500
C1065       C  0.50651434  0.14446359  0.50993857    -0.02500
C1066       C  0.52873414  0.16416721  0.48684584    -0.16900
H1067       H  0.55124275  0.19122947  0.41137884     0.21100
H1068       H  0.45068950  0.11251835  0.41951276     0.19500
H1069       H  0.45177865  0.12534495  0.33434859     0.19400
H1070       H  0.54922556  0.18064597  0.49707106     0.15300
C1071       C  0.54873296  0.31028094  0.16416206     0.30700
C1072       C  0.54889364  0.33427203  0.14916436    -0.35600
C1073       C  0.56934779  0.36043236  0.16562470     0.16700
C1074       C  0.58819397  0.36266589  0.19492759     0.22500
C1075       C  0.58777512  0.33876043  0.21029358    -0.33800
C1076       C  0.56751337  0.31276082  0.19373552     0.16600
O1077       O  0.53243138  0.28386483  0.15179707    -0.25800
C1078       C  0.54091156  0.26934385  0.17388902     0.06400
C1079       C  0.56263929  0.28628913  0.20048977    -0.30700
O1080       O  0.60694350  0.38905529  0.20377325    -0.22500
C1081       C  0.60016452  0.40416882  0.18003104    -0.02500
C1082       C  0.57675004  0.38748468  0.15578401    -0.16900
H1083       H  0.53465393  0.33272721  0.12542079     0.21100
H1084       H  0.60287306  0.34040914  0.23268005     0.19500
H1085       H  0.57362320  0.28003690  0.22126684     0.19400
H1086       H  0.56761013  0.39425894  0.13266738     0.15300
C1087       C  0.40202792  0.97633433  0.27131680     0.30700
C1088       C  0.39840324  0.99582117  0.24914979    -0.35600
C1089       C  0.42220231  0.01708782  0.23004727     0.16700
C1090       C  0.44821008  0.01952392  0.23248897     0.22500
C1091       C  0.45186621  0.99968244  0.25482467    -0.33800
C1092       C  0.42772000  0.97805756  0.27417449     0.16600
O1093       O  0.38192094  0.95419837  0.28968877    -0.25800
C1094       C  0.39440372  0.94109670  0.30517365     0.06400
C1095       C  0.42312769  0.95506574  0.29668301    -0.30700
O1096       O  0.46788027  0.04269776  0.21430350    -0.22500
C1097       C  0.45392142  0.05485558  0.20001455    -0.02500
C1098       C  0.42550773  0.03958027  0.20892490    -0.16900
H1099       H  0.37824671  0.99450193  0.24699898     0.21100
H1100       H  0.47206939  0.00114804  0.25728870     0.19500
H1101       H  0.43792823  0.94830887  0.30364482     0.19400
H1102       H  0.40983466  0.04540173  0.20319226     0.15300
C1103       C  0.31051355  0.10844233  0.08856263     0.30700
C1104       C  0.32595659  0.11739737  0.12495314    -0.35600
C1105       C  0.35486646  0.12759590  0.12190362     0.16700
C1106       C  0.36769557  0.12968489  0.08531633     0.22500
C1107       C  0.35231180  0.12077749  0.04903015    -0.33800
C1108       C  0.32337539  0.10987274  0.05223728     0.16600
O1109       O  0.28294556  0.09508977  0.08511180    -0.25800
C1110       C  0.27807539  0.08761488  0.04621033     0.06400
C1111       C  0.30249350  0.09636992  0.02425382    -0.30700
O1112       O  0.39459671  0.13863426  0.08935126    -0.22500
C1113       C  0.39917309  0.14195116  0.12905713    -0.02500
C1114       C  0.37516722  0.13524080  0.15102473    -0.16900
H1115       H  0.31589993  0.11514986  0.15381636     0.21100
H1116       H  0.36204591  0.12105056  0.02057750     0.19500
H1117       H  0.30445117  0.09162872  0.99303523     0.19400
H1118       H  0.37291845  0.13542877  0.18350500     0.15300
C1119       C  0.91388462  0.26691791  0.60407652     0.30700
C1120       C  0.93897608  0.26907787  0.59142431    -0.35600
C1121       C  0.93662872  0.24559687  0.57112367     0.16700
C1122       C  0.91135216  0.22133754  0.56333735     0.22500
C1123       C  0.88593909  0.21912675  0.57622403    -0.33800
C1124       C  0.88829462  0.24280932  0.59711628     0.16600
O1125       O  0.91165796  0.28714520  0.62186309    -0.25800
C1126       C  0.88428858  0.27612304  0.62736762     0.06400
C1127       C  0.86855006  0.24841368  0.61266628    -0.30700
O1128       O  0.91468764  0.20164811  0.54489448    -0.22500
C1129       C  0.94250287  0.21375087  0.54116364    -0.02500
C1130       C  0.95691912  0.24105866  0.55686925    -0.16900
H1131       H  0.95908804  0.28793294  0.59700443     0.21100
H1132       H  0.86582972  0.20029551  0.57058207     0.19500
H1133       H  0.84595189  0.23513573  0.61123091     0.19400
H1134       H  0.97938658  0.25522462  0.55893327     0.15300
C1135       C  0.78530714  0.43000553  0.64068702     0.30700
C1136       C  0.76578182  0.43385683  0.61887001    -0.35600
C1137       C  0.75672774  0.45080668  0.63737083     0.16700
C1138       C  0.76634239  0.46349902  0.67471761     0.22500
C1139       C  0.78617664  0.45979175  0.69651744    -0.33800
C1140       C  0.79513838  0.44252974  0.67807817     0.16600
O1141       O  0.79480279  0.41326013  0.63010350    -0.25800
C1142       C  0.81112782  0.41493315  0.66089351     0.06400
C1143       C  0.81224739  0.43296283  0.69168906    -0.30700
O1144       O  0.75352235  0.47704362  0.68718204    -0.22500
C1145       C  0.73539884  0.47272252  0.65741209    -0.02500
C1146       C  0.73665162  0.45661417  0.62573578    -0.16900
H1147       H  0.75741246  0.42345830  0.59002866     0.21100
H1148       H  0.79337721  0.46891108  0.72634631     0.19500
H1149       H  0.82293650  0.43726593  0.72059088     0.19400
H1150       H  0.72376965  0.44928708  0.59866000     0.15300
C1151       C  0.65040837  0.22708842  0.65084923     0.30700
C1152       C  0.67358513  0.24845883  0.63082981    -0.35600
C1153       C  0.69980038  0.25466356  0.64540839     0.16700
C1154       C  0.70331053  0.24088408  0.67760796     0.22500
C1155       C  0.67988662  0.21935876  0.69796657    -0.33800
C1156       C  0.65337579  0.21307559  0.68325322     0.16600
O1157       O  0.62411388  0.21846903  0.64212590    -0.25800
C1158       C  0.60966679  0.19861254  0.66917143     0.06400
C1159       C  0.62669896  0.19420920  0.69571187    -0.30700
O1160       O  0.73014934  0.25078726  0.68615005    -0.22500
C1161       C  0.74367440  0.27104788  0.65888245    -0.02500
C1162       C  0.72574347  0.27429824  0.63300979    -0.16900
H1163       H  0.67130975  0.25966761  0.60565836     0.21100
H1164       H  0.68215464  0.20845872  0.72354653     0.19500
H1165       H  0.62037980  0.17958942  0.72063682     0.19400
H1166       H  0.73110008  0.28937359  0.60885401     0.15300
C1167       C  0.99441904  0.44060459  0.70864641     0.30700
C1168       C  0.02314587  0.45026305  0.70406026    -0.35600
C1169       C  0.03992087  0.46145767  0.73899079     0.16700
C1170       C  0.02920712  0.46258688  0.77614919     0.22500
C1171       C  0.00062982  0.45359378  0.78048574    -0.33800
C1172       C  0.98395296  0.44290255  0.74539585     0.16600
O1173       O  0.97449632  0.42724894  0.68097545    -0.25800
C1174       C  0.95099107  0.42145698  0.70006047     0.06400
C1175       C  0.95576300  0.43095559  0.74008832    -0.30700
O1176       O  0.04831202  0.47178035  0.80540310    -0.22500
C1177       C  0.07173388  0.47723453  0.78647647    -0.02500
C1178       C  0.06773361  0.47134288  0.74514275    -0.16900
H1179       H  0.03169354  0.44844108  0.67558545     0.21100
H1180       H  0.99184458  0.45415201  0.80941434     0.19500
H1181       H  0.94038524  0.42764750  0.76284323     0.19400
H1182       H  0.08292973  0.47292509  0.72318618     0.15300
C1183       C  0.83566881  0.32544135  0.94769038     0.30700
C1184       C  0.82269445  0.30886008  0.91306589    -0.35600
C1185       C  0.83534731  0.32071967  0.87599494     0.16700
C1186       C  0.85881893  0.34729980  0.87333584     0.22500
C1187       C  0.87216602  0.36356484  0.90798369    -0.33800
C1188       C  0.85979944  0.35151825  0.94504669     0.16600
O1189       O  0.82694320  0.31885467  0.98522321    -0.25800
C1190       C  0.84593966  0.34077144  0.00696860     0.06400
C1191       C  0.86704106  0.36167173  0.98364522    -0.30700
O1192       O  0.86582248  0.35528442  0.83566369    -0.22500
C1193       C  0.84702550  0.33336035  0.81380045    -0.02500
C1194       C  0.82762170  0.31106191  0.83720297    -0.16900
H1195       H  0.80379757  0.28836266  0.91487583     0.21100
H1196       H  0.89060272  0.38440242  0.90609471     0.19500
H1197       H  0.88475458  0.38157320  0.99361527     0.19400
H1198       H  0.80958918  0.29144442  0.82710202     0.15300
C1199       C  0.84641704  0.32363320  0.37402556     0.30700
C1200       C  0.86297273  0.32603055  0.40786804    -0.35600
C1201       C  0.85746927  0.33628274  0.44366279     0.16700
C1202       C  0.83679120  0.34322739  0.44605628     0.22500
C1203       C  0.82054185  0.34118583  0.41225969    -0.33800
C1204       C  0.82622536  0.33123671  0.37654281     0.16600
O1205       O  0.84894334  0.31608823  0.33689710    -0.25800
C1206       C  0.83011346  0.31896180  0.31552196     0.06400
C1207       C  0.81547758  0.32836286  0.33872191    -0.30700
O1208       O  0.83388421  0.35057700  0.48289910    -0.22500
C1209       C  0.85327996  0.34886753  0.50444842    -0.02500
C1210       C  0.86877630  0.34027907  0.48159068    -0.16900
H1211       H  0.87913149  0.32049292  0.40633603     0.21100
H1212       H  0.80452586  0.34693329  0.41372530     0.19500
H1213       H  0.80032062  0.33395541  0.32857246     0.19400
H1214       H  0.88467408  0.33581117  0.49198475     0.15300
C1215       C  0.89173102  0.20405178  0.05703848     0.30700
C1216       C  0.87349399  0.20331223  0.08737224    -0.35600
C1217       C  0.87155332  0.22776624  0.09170885     0.16700
C1218       C  0.88634998  0.25102136  0.06741201     0.22500
C1219       C  0.90388553  0.25149502  0.03663836    -0.33800
C1220       C  0.90602965  0.22734169  0.03262663     0.16600
O1221       O  0.90025906  0.18569988  0.05191871    -0.25800
C1222       C  0.91991268  0.19730276  0.02352875     0.06400
C1223       C  0.92430945  0.22318554  0.01055976    -0.30700
O1224       O  0.88361737  0.27246815  0.07848983    -0.22500
C1225       C  0.86681716  0.26316218  0.11038327    -0.02500
C1226       C  0.85833219  0.23528984  0.11995651    -0.16900
H1227       H  0.86297705  0.18567477  0.10777698     0.21100
H1228       H  0.91634728  0.27013930  0.01864633     0.19500
H1229       H  0.94077761  0.23816362  0.99104634     0.19400
H1230       H  0.84524693  0.22284405  0.14474394     0.15300
C1231       C  0.76554415  0.45658002  0.17754929     0.30700
C1232       C  0.77802214  0.44492885  0.20151872    -0.35600
C1233       C  0.78796332  0.42944458  0.18082376     0.16700
C1234       C  0.78526933  0.42519991  0.13947459     0.22500
C1235       C  0.77330334  0.43735726  0.11541067    -0.33800
C1236       C  0.76388348  0.45335612  0.13601586     0.16600
O1237       O  0.75286592  0.46983929  0.19090034    -0.25800
C1238       C  0.74352009  0.47579171  0.15747079     0.06400
C1239       C  0.74995000  0.46626144  0.12233947    -0.30700
O1240       O  0.79402649  0.40818418  0.12683416    -0.22500
C1241       C  0.80300500  0.40195911  0.16040588    -0.02500
C1242       C  0.79987315  0.41469813  0.19489805    -0.16900
H1243       H  0.77918644  0.44712039  0.23413137     0.21100
H1244       H  0.77084621  0.43396634  0.08302120     0.19500
H1245       H  0.74342125  0.46684083  0.09165094     0.19400
H1246       H  0.80443014  0.41228981  0.22598247     0.15300
C1247       C  0.69203091  0.22678010  0.13977544     0.30700
C1248       C  0.66707933  0.21470117  0.11694753    -0.35600
C1249       C  0.64203704  0.19994031  0.13881452     0.16700
C1250       C  0.64163908  0.19776172  0.18040937     0.22500
C1251       C  0.66659750  0.20903612  0.20305823    -0.33800
C1252       C  0.69162245  0.22334124  0.18113443     0.16600
O1253       O  0.71755447  0.24379056  0.12612035    -0.25800
C1254       C  0.73377532  0.25079150  0.15898100     0.06400
C1255       C  0.71882519  0.23847970  0.19403908    -0.30700
O1256       O  0.61608527  0.18649963  0.19519952    -0.22500
C1257       C  0.59976258  0.18058958  0.16265583    -0.02500
C1258       C  0.61474133  0.18829219  0.12667957    -0.16900
H1259       H  0.66715143  0.21770781  0.08459279     0.21100
H1260       H  0.66650451  0.20788472  0.23574997     0.19500
H1261       H  0.72664182  0.24190958  0.22483764     0.19400
H1262       H  0.60689848  0.18777163  0.09645963     0.15300
C1263       C  0.02528143  0.44474789  0.25743202     0.30700
C1264       C  0.01031595  0.44076476  0.22119549    -0.35600
C1265       C  0.98107572  0.42309182  0.22321538     0.16700
C1266       C  0.96742930  0.41059432  0.25864908     0.22500
C1267       C  0.98246326  0.41416849  0.29477363    -0.33800
C1268       C  0.01178966  0.43155085  0.29261788     0.16600
O1269       O  0.05276344  0.45987756  0.26202298    -0.25800
C1270       C  0.05713732  0.45623927  0.30059692     0.06400
C1271       C  0.03235702  0.43864226  0.32110990    -0.30700
O1272       O  0.93994592  0.39515048  0.25370010    -0.22500
C1273       C  0.93594931  0.39746561  0.21445633    -0.02500
C1274       C  0.96084038  0.41438143  0.19390647    -0.16900
H1275       H  0.02078776  0.45052785  0.19326167     0.21100
H1276       H  0.97204579  0.40392352  0.32250384     0.19500
H1277       H  0.02992211  0.43169275  0.35214365     0.19400
H1278       H  0.96357186  0.41950204  0.16207999     0.15300
loop_ 
_geom_bond_atom_site_label_1 
_geom_bond_atom_site_label_2 
_geom_bond_distance 
_geom_bond_site_symmetry_2 
_ccdc_geom_bond_type 
Zn1           O5   1.921       .  S
Zn1           O6   2.009       .  S
Zn1          O10   2.030       .  S
Zn1          O17   2.010       .  S
Zn2           O5   1.931       .  S
Zn2           O7   2.041       .  S
Zn2           O9   2.039       .  S
Zn2          O13   1.987       .  S
Zn3           O5   1.914       .  S
Zn3           O8   2.022       .  S
Zn3          O11   2.035       .  S
Zn3          O14   1.985       .  S
Zn4           O5   1.956       .  S
Zn4          O12   2.074       .  S
Zn4          O15   2.069       .  S
Zn4          O16   2.048       .  S
O6           C18   1.272       .  A
O7           C19   1.277       .  A
O8           C20   1.276       .  A
O9           C18   1.277       .  A
O10          C20   1.276       .  A
O11          C19   1.275       .  A
O12          C21   1.280       .  A
O13          C22   1.272       .  A
O14          C21   1.270       .  A
O15          C22   1.280       .  A
O16          C23   1.278       .  A
O17          C23   1.273       .  A
C18        C1190   1.469       .  S
C19        C1273   1.477       .  S
C20        C1241   1.470       .  S
C21        C1206   1.471       .  S
C22        C1225   1.473       .  S
C23        C1254   1.470       .  S
Zn24         O28   1.955       .  S
Zn24         O29   1.995       .  S
Zn24         O33   2.068       .  S
Zn24         O40   2.016       .  S
Zn25         O28   1.991       .  S
Zn25         O30   2.049       .  S
Zn25         O32   2.052       .  S
Zn25         O36   2.088       .  S
Zn26         O28   1.933       .  S
Zn26         O31   2.000       .  S
Zn26         O34   1.996       .  S
Zn26         O37   1.995       .  S
Zn27         O28   1.962       .  S
Zn27         O35   2.045       .  S
Zn27         O38   1.998       .  S
Zn27         O39   2.059       .  S
O29          C41   1.273       .  A
O30          C42   1.275       .  A
O31          C43   1.270       .  A
O32          C41   1.279       .  A
O33          C43   1.278       .  A
O34          C42   1.272       .  A
O35          C44   1.277       .  A
O36          C45   1.281       .  A
O37          C44   1.271       .  A
O38          C45   1.271       .  A
O39          C46   1.278       .  A
O40          C46   1.274       .  A
C41        C1193   1.467       .  S
C42        C1161   1.474       .  S
C43        C1142   1.479       .  S
C44        C1209   1.469       .  S
C45        C1126   1.479       .  S
C46        C1174   1.481       .  S
Zn47         O51   1.939       .  S
Zn47         O52   1.988       .  S
Zn47         O56   2.012       .  S
Zn47         O63   2.010       .  S
Zn48         O51   1.955       .  S
Zn48         O53   2.052       .  S
Zn48         O55   2.020       .  S
Zn48         O59   1.990       .  S
Zn49         O51   1.939       .  S
Zn49         O54   2.039       .  S
Zn49         O57   2.000       .  S
Zn49         O60   1.979       .  S
Zn50         O51   1.979       .  S
Zn50         O58   2.065       .  S
Zn50         O61   2.098       .  S
Zn50         O62   2.054       .  S
O52          C64   1.271       .  A
O53          C65   1.275       .  A
O54          C66   1.275       .  A
O55          C64   1.275       .  A
O56          C66   1.273       .  A
O57          C65   1.269       .  A
O58          C67   1.281       .  A
O59          C68   1.272       .  A
O60          C67   1.272       .  A
O61          C68   1.282       .  A
O62          C69   1.277       .  A
O63          C69   1.271       .  A
C64        C1062   1.461       .  S
C65        C1113   1.471       .  S
C66        C1078   1.475       .  S
C67        C1046   1.471       .  S
C68        C1097   1.483       .  S
C69        C1257   1.471       .  S
Zn70         O74   1.943       .  S
Zn70         O75   1.971       .  S
Zn70         O79   2.034       .  S
Zn70         O86   1.968       .  S
Zn71         O74   1.994       .  S
Zn71         O76   2.054       .  S
Zn71         O78   2.074       .  S
Zn71         O82   2.087       .  S
Zn72         O74   1.920       .  S
Zn72         O77   1.992       .  S
Zn72         O80   1.967       .  S
Zn72         O83   1.983       .  S
Zn73         O74   1.957       .  S
Zn73         O81   2.020       .  S
Zn73         O84   2.004       .  S
Zn73         O85   2.034       .  S
O75          C87   1.270       .  A
O76          C88   1.276       .  A
O77          C89   1.269       .  A
O78          C87   1.281       .  A
O79          C89   1.271       .  A
O80          C88   1.270       .  A
O81          C90   1.272       .  A
O82          C91   1.281       .  A
O83          C90   1.269       .  A
O84          C91   1.273       .  A
O85          C92   1.275       .  A
O86          C92   1.267       .  A
C87        C1049   1.472       .  S
C88         C998   1.469       .  S
C89        C1158   1.469       .  S
C90        C1065   1.460       .  S
C91        C1033   1.483       .  S
C92        C1017   1.457       .  S
Zn93         O97   1.960       .  S
Zn93         O98   1.983       .  S
Zn93        O102   2.041       .  S
Zn93        O109   2.040       .  S
Zn94         O97   1.998       .  S
Zn94         O99   2.096       .  S
Zn94        O101   2.097       .  S
Zn94        O105   2.065       .  S
Zn95         O97   1.942       .  S
Zn95        O100   1.999       .  S
Zn95        O103   1.967       .  S
Zn95        O106   2.035       .  S
Zn96         O97   1.935       .  S
Zn96        O104   1.998       .  S
Zn96        O107   1.995       .  S
Zn96        O108   1.982       .  S
O98         C110   1.271       .  A
O99         C111   1.283       .  A
O100        C112   1.271       .  A
O101        C110   1.282       .  A
O102        C112   1.275       .  A
O103        C111   1.268       .  A
O104        C113   1.269       .  A
O105        C114   1.279       .  A
O106        C113   1.274       .  A
O107        C114   1.271       .  A
O108        C115   1.270       .  A
O109        C115   1.274       .  A
C110        C969   1.479       .  S
C111        C937   1.476       .  S
C112        C982   1.471       .  S
C113       C1238   1.467       .  S
C114       C1081   1.475       .  S
C115        C950   1.467       .  S
Zn116       O120   1.992       .  S
Zn116       O121   2.080       .  S
Zn116       O125   2.088       .  S
Zn116       O132   2.116       .  S
Zn117       O120   1.929       .  S
Zn117       O122   2.001       .  S
Zn117       O124   1.997       .  S
Zn117       O128   2.005       .  S
Zn118       O120   1.957       .  S
Zn118       O123   1.982       .  S
Zn118       O126   2.022       .  S
Zn118       O129   2.014       .  S
Zn119       O120   1.941       .  S
Zn119       O127   2.017       .  S
Zn119       O130   2.014       .  S
Zn119       O131   1.964       .  S
O121        C133   1.279       .  A
O122        C134   1.273       .  A
O123        C135   1.271       .  A
O124        C133   1.272       .  A
O125        C135   1.285       .  A
O126        C134   1.273       .  A
O127        C136   1.274       .  A
O128        C137   1.271       .  A
O129        C136   1.270       .  A
O130        C137   1.273       .  A
O131        C138   1.268       .  A
O132        C138   1.284       .  A
C133       C1145   1.481       .  S
C134       C1001   1.464       .  S
C135        C934   1.476       .  S
C136        C905   1.471       .  S
C137        C953   1.467       .  S
C138        C921   1.488       .  S
Zn139       O143   1.928       .  S
Zn139       O144   1.977       .  S
Zn139       O148   2.011       .  S
Zn139       O155   1.976       .  S
Zn140       O143   1.952       .  S
Zn140       O145   2.042       .  S
Zn140       O147   2.033       .  S
Zn140       O151   1.991       .  S
Zn141       O143   1.928       .  S
Zn141       O146   2.000       .  S
Zn141       O149   1.979       .  S
Zn141       O152   1.960       .  S
Zn142       O143   1.987       .  S
Zn142       O150   2.094       .  S
Zn142       O153   2.100       .  S
Zn142       O154   2.072       .  S
O144        C156   1.269       .  A
O145        C157   1.276       .  A
O146        C158   1.269       .  A
O147        C156   1.274       .  A
O148        C158   1.270       .  A
O149        C157   1.268       .  A
O150        C159   1.283       .  A
O151        C160   1.272       .  A
O152        C159   1.267       .  A
O153        C160   1.283       .  A
O154        C161   1.279       .  A
O155        C161   1.271       .  A
C156        C841   1.464       .  S
C157        C854   1.463       .  S
C158        C870   1.463       .  S
C159        C825   1.474       .  S
C160       C1094   1.482       .  S
C161        C889   1.474       .  S
Zn162       O166   1.955       .  S
Zn162       O167   2.034       .  S
Zn162       O171   2.045       .  S
Zn162       O178   2.001       .  S
Zn163       O166   1.937       .  S
Zn163       O168   2.035       .  S
Zn163       O170   1.974       .  S
Zn163       O174   1.977       .  S
Zn164       O166   1.921       .  S
Zn164       O169   1.972       .  S
Zn164       O172   2.004       .  S
Zn164       O175   1.982       .  S
Zn165       O166   1.981       .  S
Zn165       O173   2.057       .  S
Zn165       O176   2.074       .  S
Zn165       O177   2.082       .  S
O167        C179   1.276       .  A
O168        C180   1.274       .  A
O169        C181   1.268       .  A
O170        C179   1.267       .  A
O171        C181   1.275       .  A
O172        C180   1.270       .  A
O173        C182   1.278       .  A
O174        C183   1.270       .  A
O175        C182   1.271       .  A
O176        C183   1.280       .  A
O177        C184   1.281       .  A
O178        C184   1.273       .  A
C179       C1014   1.460       .  S
C180        C809   1.471       .  S
C181        C838   1.465       .  S
C182        C793   1.468       .  S
C183        C822   1.470       .  S
C184        C777   1.479       .  S
Zn185       O189   1.950       .  S
Zn185       O190   2.053       .  S
Zn185       O194   2.031       .  S
Zn185       O201   1.969       .  S
Zn186       O189   1.937       .  S
Zn186       O191   2.015       .  S
Zn186       O193   2.013       .  S
Zn186       O197   1.976       .  S
Zn187       O189   1.948       .  S
Zn187       O192   2.000       .  S
Zn187       O195   2.013       .  S
Zn187       O198   2.022       .  S
Zn188       O189   1.981       .  S
Zn188       O196   2.034       .  S
Zn188       O199   2.052       .  S
Zn188       O200   2.063       .  S
O190        C202   1.277       .  A
O191        C203   1.274       .  A
O192        C204   1.271       .  A
O193        C202   1.271       .  A
O194        C204   1.275       .  A
O195        C203   1.273       .  A
O196        C205   1.275       .  A
O197        C206   1.270       .  A
O198        C205   1.273       .  A
O199        C206   1.277       .  A
O200        C207   1.279       .  A
O201        C207   1.269       .  A
C202       C1270   1.479       .  S
C203        C873   1.462       .  S
C204        C710   1.468       .  S
C205        C742   1.469       .  S
C206        C729   1.465       .  S
C207        C758   1.467       .  S
Zn208       O212   1.911       .  S
Zn208       O213   2.006       .  S
Zn208       O217   1.986       .  S
Zn208       O224   2.022       .  S
Zn209       O212   1.939       .  S
Zn209       O214   1.987       .  S
Zn209       O216   2.063       .  S
Zn209       O220   2.052       .  S
Zn210       O212   1.954       .  S
Zn210       O215   2.060       .  S
Zn210       O218   2.076       .  S
Zn210       O221   2.074       .  S
Zn211       O212   1.909       .  S
Zn211       O219   1.993       .  S
Zn211       O222   1.990       .  S
Zn211       O223   2.016       .  S
O213        C225   1.272       .  A
O214        C226   1.272       .  A
O215        C227   1.279       .  A
O216        C225   1.279       .  A
O217        C227   1.272       .  A
O218        C226   1.281       .  A
O219        C228   1.271       .  A
O220        C229   1.279       .  A
O221        C228   1.280       .  A
O222        C229   1.271       .  A
O223        C230   1.275       .  A
O224        C230   1.273       .  A
C225       C1177   1.477       .  S
C226        C697   1.478       .  S
C227        C713   1.467       .  S
C228        C678   1.473       .  S
C229        C726   1.470       .  S
C230        C790   1.470       .  S
Zn231       O235   1.937       .  S
Zn231       O236   2.019       .  S
Zn231       O240   2.009       .  S
Zn231       O247   2.006       .  S
Zn232       O235   1.952       .  S
Zn232       O237   1.999       .  S
Zn232       O239   2.032       .  S
Zn232       O243   2.036       .  S
Zn233       O235   1.969       .  S
Zn233       O238   2.032       .  S
Zn233       O241   2.032       .  S
Zn233       O244   2.075       .  S
Zn234       O235   1.938       .  S
Zn234       O242   1.999       .  S
Zn234       O245   2.035       .  S
Zn234       O246   2.037       .  S
O236        C248   1.274       .  A
O237        C249   1.272       .  A
O238        C250   1.274       .  A
O239        C248   1.274       .  A
O240        C250   1.272       .  A
O241        C249   1.276       .  A
O242        C251   1.272       .  A
O243        C252   1.275       .  A
O244        C251   1.278       .  A
O245        C252   1.276       .  A
O246        C253   1.277       .  A
O247        C253   1.273       .  A
C248        C886   1.472       .  S
C249        C633   1.457       .  S
C250        C745   1.465       .  S
C251        C966   1.480       .  S
C252        C665   1.479       .  S
C253        C646   1.471       .  S
Zn254       O258   1.989       .  S
Zn254       O259   2.078       .  S
Zn254       O263   2.045       .  S
Zn254       O270   2.045       .  S
Zn255       O258   1.948       .  S
Zn255       O260   2.026       .  S
Zn255       O262   1.966       .  S
Zn255       O266   2.030       .  S
Zn256       O258   1.943       .  S
Zn256       O261   2.007       .  S
Zn256       O264   1.987       .  S
Zn256       O267   2.000       .  S
Zn257       O258   1.957       .  S
Zn257       O265   2.040       .  S
Zn257       O268   2.036       .  S
Zn257       O269   1.999       .  S
O259        C271   1.279       .  A
O260        C272   1.273       .  A
O261        C273   1.271       .  A
O262        C271   1.268       .  A
O263        C273   1.275       .  A
O264        C272   1.269       .  A
O265        C274   1.275       .  A
O266        C275   1.274       .  A
O267        C274   1.272       .  A
O268        C275   1.275       .  A
O269        C276   1.272       .  A
O270        C276   1.277       .  A
C271        C902   1.471       .  S
C272        C630   1.466       .  S
C273        C681   1.471       .  S
C274        C806   1.467       .  S
C275        C617   1.478       .  S
C276        C649   1.464       .  S
Zn277       O281   1.941       .  S
Zn277       O282   2.012       .  S
Zn277       O286   1.958       .  S
Zn277       O293   2.022       .  S
Zn278       O281   1.953   1_556  S
Zn278       O283   1.976   1_545  S
Zn278       O285   2.026   1_556  S
Zn278       O289   2.022       .  S
Zn279       O281   2.002   1_565  S
Zn279       O284   2.093       .  S
Zn279       O287   2.112       .  S
Zn279       O290   2.092       .  S
Zn280       O281   1.931   1_556  S
Zn280       O288   1.985   1_545  S
Zn280       O291   1.974       .  S
Zn280       O292   2.009       .  S
O282        C294   1.271       .  A
O283        C295   1.271       .  A
O284        C296   1.283       .  A
O285        C294   1.274       .  A
O286        C296   1.269   1_545  A
O287        C295   1.284   1_554  A
O288        C297   1.271       .  A
O289        C298   1.272       .  A
O290        C297   1.281   1_554  A
O291        C298   1.269       .  A
O292        C299   1.270   1_556  A
O293        C299   1.272       .  A
C294       C1110   1.471       .  S
C295        C774   1.486       .  S
C296        C569   1.476       .  S
C297        C585   1.482       .  S
C298        C553   1.461       .  S
C299        C601   1.467       .  S
Zn300       O304   1.934       .  S
Zn300       O305   1.987       .  S
Zn300       O309   2.028       .  S
Zn300       O316   2.007   1_565  S
Zn301       O304   1.962       .  S
Zn301       O306   2.040       .  S
Zn301       O308   2.014       .  S
Zn301       O312   1.994   1_565  S
Zn302       O304   1.934       .  S
Zn302       O307   2.016       .  S
Zn302       O310   1.981       .  S
Zn302       O313   1.958       .  S
Zn303       O304   1.991   1_545  S
Zn303       O311   2.071       .  S
Zn303       O314   2.096       .  S
Zn303       O315   2.075       .  S
O305        C317   1.271       .  A
O306        C318   1.274       .  A
O307        C319   1.271       .  A
O308        C317   1.273       .  A
O309        C319   1.273       .  A
O310        C318   1.267       .  A
O311        C320   1.281   1_545  A
O312        C321   1.272       .  A
O313        C320   1.268       .  A
O314        C321   1.282       .  A
O315        C322   1.280       .  A
O316        C322   1.273       .  A
C317        C550   1.459       .  S
C318        C857   1.464       .  S
C319        C521   1.471       .  S
C320        C566   1.469       .  S
C321       C1030   1.480       .  S
C322        C534   1.480       .  S
Zn323       O327   1.956   1_455  S
Zn323       O328   2.028       .  S
Zn323       O332   1.994   1_455  S
Zn323       O339   2.028       .  S
Zn324       O327   1.949       .  S
Zn324       O329   2.029       .  S
Zn324       O331   1.991   1_655  S
Zn324       O335   2.016   1_655  S
Zn325       O327   1.977   1_556  S
Zn325       O330   2.054       .  S
Zn325       O333   2.016       .  S
Zn325       O336   2.039       .  S
Zn326       O327   1.955   1_456  S
Zn326       O334   1.984       .  S
Zn326       O337   2.024       .  S
Zn326       O338   2.009       .  S
O328        C340   1.274       .  A
O329        C341   1.275       .  A
O330        C342   1.276   1_556  A
O331        C340   1.271       .  A
O332        C342   1.270       .  A
O333        C341   1.273   1_556  A
O334        C343   1.270   1_455  A
O335        C344   1.272       .  A
O336        C343   1.276       .  A
O337        C344   1.273   1_556  A
O338        C345   1.272       .  A
O339        C345   1.274   1_554  A
C340        C486   1.462       .  S
C341        C502   1.469       .  S
C342       C1222   1.467       .  S
C343        C470   1.463       .  S
C344        C598   1.468       .  S
C345        C694   1.471       .  S
Zn346       O350   1.925       .  S
Zn346       O351   1.988   1_455  S
Zn346       O355   2.017       .  S
Zn346       O362   2.019       .  S
Zn347       O350   1.972   1_655  S
Zn347       O352   2.046       .  S
Zn347       O354   2.090       .  S
Zn347       O358   2.057       .  S
Zn348       O350   1.943       .  S
Zn348       O353   2.028       .  S
Zn348       O356   1.991       .  S
Zn348       O359   2.045       .  S
Zn349       O350   1.923   1_655  S
Zn349       O357   2.034   1_655  S
Zn349       O360   2.012       .  S
Zn349       O361   2.019       .  S
O351        C363   1.271       .  A
O352        C364   1.280       .  A
O353        C365   1.273       .  A
O354        C363   1.280       .  A
O355        C365   1.274       .  A
O356        C364   1.274   1_455  A
O357        C366   1.277       .  A
O358        C367   1.278       .  A
O359        C366   1.275       .  A
O360        C367   1.273       .  A
O361        C368   1.274   1_655  A
O362        C368   1.276       .  A
C363       C1129   1.484       .  S
C364        C489   1.463       .  S
C365        C761   1.474       .  S
C366        C537   1.482       .  S
C367        C457   1.471       .  S
C368        C473   1.464       .  S
Zn369       O373   1.915       .  S
Zn369       O374   2.002       .  S
Zn369       O378   2.010       .  S
Zn369       O385   2.045       .  S
Zn370       O373   1.947   1_554  S
Zn370       O375   2.065   1_554  S
Zn370       O377   2.041       .  S
Zn370       O381   2.066       .  S
Zn371       O373   1.931       .  S
Zn371       O376   2.031       .  S
Zn371       O379   1.994       .  S
Zn371       O382   2.040       .  S
Zn372       O373   1.913   1_554  S
Zn372       O380   2.002       .  S
Zn372       O383   2.006       .  S
Zn372       O384   2.036       .  S
O374        C386   1.273       .  A
O375        C387   1.279       .  A
O376        C388   1.278       .  A
O377        C386   1.277   1_554  A
O378        C388   1.273       .  A
O379        C387   1.272       .  A
O380        C389   1.273       .  A
O381        C390   1.279       .  A
O382        C389   1.277   1_556  A
O383        C390   1.274       .  A
O384        C391   1.277   1_554  A
O385        C391   1.278       .  A
C386        C505   1.462   1_556  S
C387        C614   1.478       .  S
C388        C425   1.469       .  S
C389        C985   1.470       .  S
C390        C438   1.471       .  S
C391        C582   1.480       .  S
Zn392       O396   1.952       .  S
Zn392       O397   2.035       .  S
Zn392       O401   2.028       .  S
Zn392       O408   1.982       .  S
Zn393       O396   1.942       .  S
Zn393       O398   1.999       .  S
Zn393       O400   2.015       .  S
Zn393       O404   2.025       .  S
Zn394       O396   1.957       .  S
Zn394       O399   2.058       .  S
Zn394       O402   2.046       .  S
Zn394       O405   1.975       .  S
Zn395       O396   1.999       .  S
Zn395       O403   2.084       .  S
Zn395       O406   2.053       .  S
Zn395       O407   2.058       .  S
O397        C409   1.274       .  A
O398        C410   1.273       .  A
O399        C411   1.278       .  A
O400        C409   1.273       .  A
O401        C411   1.273       .  A
O402        C410   1.276       .  A
O403        C412   1.280       .  A
O404        C413   1.274       .  A
O405        C412   1.270       .  A
O406        C413   1.277       .  A
O407        C414   1.279       .  A
O408        C414   1.271       .  A
C409        C518   1.471       .  S
C410        C441   1.475       .  S
C411        C918   1.484       .  S
C412        C662   1.478       .  S
C413        C454   1.480       .  S
C414        C422   1.465       .  S
C415        C420   1.380       .  A
C415        C416   1.400       .  A
C415        O421   1.312       .  A
C416        C417   1.397       .  A
C416        H427   1.082       .  S
C417        C426   1.360       .  A
C417        C418   1.380       .  A
C418        C419   1.408       .  A
C418        O424   1.320       .  A
C419        C420   1.406       .  A
C419        H428   1.082       .  S
C420        C423   1.370       .  A
O421        C422   1.328       .  A
C422        C423   1.393       .  A
C423        H429   1.082       .  S
O424        C425   1.334       .  A
C425        C426   1.388       .  A
C426        H430   1.082       .  S
C431        C436   1.381       .  A
C431        C432   1.398       .  A
C431        O437   1.315       .  A
C432        C433   1.397       .  A
C432        H443   1.083       .  S
C433        C442   1.355       .  A
C433        C434   1.380       .  A
C434        C435   1.411       .  A
C434        O440   1.326       .  A
C435        C436   1.411       .  A
C435        H444   1.083       .  S
C436        C439   1.371       .  A
O437        C438   1.328       .  A
C438        C439   1.396       .  A
C439        H445   1.083       .  S
O440        C441   1.335       .  A
C441        C442   1.389       .  A
C442        H446   1.083       .  S
C447        C452   1.380       .  A
C447        C448   1.403       .  A
C447        O453   1.319       .  A
C448        C449   1.402   1_565  A
C448        H459   1.082       .  S
C449        C458   1.360       .  A
C449        C450   1.380       .  A
C450        C451   1.409   1_545  A
C450        O456   1.325       .  A
C451        C452   1.409       .  A
C451        H460   1.082       .  S
C452        C455   1.369       .  A
O453        C454   1.331       .  A
C454        C455   1.395       .  A
C455        H461   1.082       .  S
O456        C457   1.333       .  A
C457        C458   1.389       .  A
C458        H462   1.083       .  S
C463        C468   1.381   1_455  A
C463        C464   1.399       .  A
C463        O469   1.313       .  A
C464        C465   1.397       .  A
C464        H475   1.083       .  S
C465        C474   1.359       .  A
C465        C466   1.381   1_455  A
C466        C467   1.406       .  A
C466        O472   1.319       .  A
C467        C468   1.404       .  A
C467        H476   1.083       .  S
C468        C471   1.367       .  A
O469        C470   1.328   1_455  A
C470        C471   1.392       .  A
C471        H477   1.083       .  S
O472        C473   1.332   1_655  A
C473        C474   1.387       .  A
C474        H478   1.083       .  S
C479        C484   1.381   1_655  A
C479        C480   1.405       .  A
C479        O485   1.320       .  A
C480        C481   1.404       .  A
C480        H491   1.083       .  S
C481        C490   1.365       .  A
C481        C482   1.381   1_655  A
C482        C483   1.398       .  A
C482        O488   1.313       .  A
C483        C484   1.397       .  A
C483        H492   1.083       .  S
C484        C487   1.356       .  A
O485        C486   1.331   1_655  A
C486        C487   1.388       .  A
C487        H493   1.083       .  S
O488        C489   1.328   1_455  A
C489        C490   1.392       .  A
C490        H494   1.082       .  S
C495        C500   1.380   1_556  A
C495        C496   1.403       .  A
C495        O501   1.318       .  A
C496        C497   1.402   1_545  A
C496        H507   1.082       .  S
C497        C506   1.362       .  A
C497        C498   1.381   1_556  A
C498        C499   1.403       .  A
C498        O504   1.318       .  A
C499        C500   1.402   1_565  A
C499        H508   1.081       .  S
C500        C503   1.363       .  A
O501        C502   1.330   1_556  A
C502        C503   1.391       .  A
C503        H509   1.082       .  S
O504        C505   1.329       .  A
C505        C506   1.390   1_554  A
C506        H510   1.082       .  S
C511        C516   1.381       .  A
C511        C512   1.405       .  A
C511        O517   1.321       .  A
C512        C513   1.404   1_655  A
C512        H523   1.083       .  S
C513        C522   1.364       .  A
C513        C514   1.381       .  A
C514        C515   1.403   1_455  A
C514        O520   1.319       .  A
C515        C516   1.402       .  A
C515        H524   1.083   1_655  S
C516        C519   1.361       .  A
O517        C518   1.331       .  A
C518        C519   1.391       .  A
C519        H525   1.083       .  S
O520        C521   1.331       .  A
C521        C522   1.392       .  A
C522        H526   1.083       .  S
C527        C532   1.380       .  A
C527        C528   1.401       .  A
C527        O533   1.316       .  A
C528        C529   1.399       .  A
C528        H539   1.083       .  S
C529        C538   1.359       .  A
C529        C530   1.379       .  A
C530        C531   1.413       .  A
C530        O536   1.327       .  A
C531        C532   1.412       .  A
C531        H540   1.083       .  S
C532        C535   1.375       .  A
O533        C534   1.330       .  A
C534        C535   1.398       .  A
C535        H541   1.083       .  S
O536        C537   1.337       .  A
C537        C538   1.390       .  A
C538        H542   1.083       .  S
C543        C548   1.381       .  A
C543        C544   1.395   1_565  A
C543        O549   1.311       .  A
C544        C545   1.394       .  A
C544        H555   1.082       .  S
C545        C554   1.352       .  A
C545        C546   1.381       .  A
C546        C547   1.405   1_545  A
C546        O552   1.320       .  A
C547        C548   1.404       .  A
C547        H556   1.082       .  S
C548        C551   1.364       .  A
O549        C550   1.326       .  A
C550        C551   1.392       .  A
C551        H557   1.082       .  S
O552        C553   1.332       .  A
C553        C554   1.387       .  A
C554        H558   1.083       .  S
C559        C564   1.382   1_545  A
C559        C560   1.399       .  A
C559        O565   1.322       .  A
C560        C561   1.402       .  A
C560        H571   1.083       .  S
C561        C570   1.351       .  A
C561        C562   1.381   1_545  A
C562        C563   1.403       .  A
C562        O568   1.326       .  A
C563        C564   1.406       .  A
C563        H572   1.083       .  S
C564        C567   1.356       .  A
O565        C566   1.328   1_545  A
C566        C567   1.394       .  A
C567        H573   1.083       .  S
O568        C569   1.332       .  A
C569        C570   1.393   1_565  A
C570        H574   1.083       .  S
C575        C580   1.380   1_556  A
C575        C576   1.401   1_655  A
C575        O581   1.320       .  A
C576        C577   1.402       .  A
C576        H587   1.083       .  S
C577        C586   1.356       .  A
C577        C578   1.380   1_556  A
C578        C579   1.410       .  A
C578        O584   1.329       .  A
C579        C580   1.411   1_455  A
C579        H588   1.083       .  S
C580        C583   1.368       .  A
O581        C582   1.331       .  A
C582        C583   1.396   1_556  A
C583        H589   1.082       .  S
O584        C585   1.335   1_554  A
C585        C586   1.393       .  A
C586        H590   1.083       .  S
C591        C596   1.381   1_554  A
C591        C592   1.403       .  A
C591        O597   1.318       .  A
C592        C593   1.401       .  A
C592        H603   1.082       .  S
C593        C602   1.362       .  A
C593        C594   1.381   1_554  A
C594        C595   1.404       .  A
C594        O600   1.318       .  A
C595        C596   1.403       .  A
C595        H604   1.082       .  S
C596        C599   1.363       .  A
O597        C598   1.330       .  A
C598        C599   1.391   1_554  A
C599        H605   1.082       .  S
O600        C601   1.331   1_556  A
C601        C602   1.390       .  A
C602        H606   1.082       .  S
C607        C612   1.380       .  A
C607        C608   1.406       .  A
C607        O613   1.325       .  A
C608        C609   1.407       .  A
C608        H619   1.082       .  S
C609        C618   1.365       .  A
C609        C610   1.380       .  A
C610        C611   1.403       .  A
C610        O616   1.320       .  A
C611        C612   1.403       .  A
C611        H620   1.082       .  S
C612        C615   1.358       .  A
O613        C614   1.332       .  A
C614        C615   1.393       .  A
C615        H621   1.082       .  S
O616        C617   1.332       .  A
C617        C618   1.394       .  A
C618        H622   1.082       .  S
C623        C628   1.381       .  A
C623        C624   1.402       .  A
C623        O629   1.318       .  A
C624        C625   1.401       .  A
C624        H635   1.083       .  S
C625        C634   1.360       .  A
C625        C626   1.381       .  A
C626        C627   1.401       .  A
C626        O632   1.317       .  A
C627        C628   1.401       .  A
C627        H636   1.083       .  S
C628        C631   1.358       .  A
O629        C630   1.330       .  A
C630        C631   1.391       .  A
C631        H637   1.083       .  S
O632        C633   1.329       .  A
C633        C634   1.387       .  A
C634        H638   1.083       .  S
C639        C644   1.381       .  A
C639        C640   1.401       .  A
C639        O645   1.319       .  A
C640        C641   1.401       .  A
C640        H651   1.082       .  S
C641        C650   1.359       .  A
C641        C642   1.381       .  A
C642        C643   1.405       .  A
C642        O648   1.321       .  A
C643        C644   1.405       .  A
C643        H652   1.083       .  S
C644        C647   1.362       .  A
O645        C646   1.330       .  A
C646        C647   1.393       .  A
C647        H653   1.083       .  S
O648        C649   1.331   1_554  A
C649        C650   1.389   1_556  A
C650        H654   1.083   1_554  S
C655        C660   1.380       .  A
C655        C656   1.410       .  A
C655        O661   1.330       .  A
C656        C657   1.412       .  A
C656        H667   1.083       .  S
C657        C666   1.369       .  A
C657        C658   1.381       .  A
C658        C659   1.399       .  A
C658        O664   1.319       .  A
C659        C660   1.400       .  A
C659        H668   1.083       .  S
C660        C663   1.352       .  A
O661        C662   1.335       .  A
C662        C663   1.390       .  A
C663        H669   1.083       .  S
O664        C665   1.330       .  A
C665        C666   1.397       .  A
C666        H670   1.082       .  S
C671        C676   1.381       .  A
C671        C672   1.406       .  A
C671        O677   1.323       .  A
C672        C673   1.406       .  A
C672        H683   1.083       .  S
C673        C682   1.363       .  A
C673        C674   1.381       .  A
C674        C675   1.403       .  A
C674        O680   1.321       .  A
C675        C676   1.404       .  A
C675        H684   1.083       .  S
C676        C679   1.361       .  A
O677        C678   1.332       .  A
C678        C679   1.392       .  A
C679        H685   1.083       .  S
O680        C681   1.330       .  A
C681        C682   1.392       .  A
C682        H686   1.083       .  S
C687        C692   1.380       .  A
C687        C688   1.400       .  A
C687        O693   1.318       .  A
C688        C689   1.401       .  A
C688        H699   1.082       .  S
C689        C698   1.355       .  A
C689        C690   1.380       .  A
C690        C691   1.407       .  A
C690        O696   1.326       .  A
C691        C692   1.408       .  A
C691        H700   1.082       .  S
C692        C695   1.364       .  A
O693        C694   1.329       .  A
C694        C695   1.394       .  A
C695        H701   1.082       .  S
O696        C697   1.333       .  A
C697        C698   1.393       .  A
C698        H702   1.083       .  S
C703        C708   1.381       .  A
C703        C704   1.400       .  A
C703        O709   1.317       .  A
C704        C705   1.399       .  A
C704        H715   1.083       .  S
C705        C714   1.356       .  A
C705        C706   1.381       .  A
C706        C707   1.406       .  A
C706        O712   1.322       .  A
C707        C708   1.406       .  A
C707        H716   1.083       .  S
C708        C711   1.364       .  A
O709        C710   1.329       .  A
C710        C711   1.392       .  A
C711        H717   1.083       .  S
O712        C713   1.332       .  A
C713        C714   1.389       .  A
C714        H718   1.083       .  S
C719        C724   1.381       .  A
C719        C720   1.399       .  A
C719        O725   1.320       .  A
C720        C721   1.401       .  A
C720        H731   1.082       .  S
C721        C730   1.354       .  A
C721        C722   1.381       .  A
C722        C723   1.405       .  A
C722        O728   1.324       .  A
C723        C724   1.406       .  A
C723        H732   1.082       .  S
C724        C727   1.360       .  A
O725        C726   1.328   1_554  A
C726        C727   1.394   1_556  A
C727        H733   1.082       .  S
O728        C729   1.331       .  A
C729        C730   1.388       .  A
C730        H734   1.083       .  S
C735        C740   1.381       .  A
C735        C736   1.405       .  A
C735        O741   1.320       .  A
C736        C737   1.404       .  A
C736        H747   1.083       .  S
C737        C746   1.364       .  A
C737        C738   1.381       .  A
C738        C739   1.402       .  A
C738        O744   1.318       .  A
C739        C740   1.402       .  A
C739        H748   1.083       .  S
C740        C743   1.361       .  A
O741        C742   1.332       .  A
C742        C743   1.389       .  A
C743        H749   1.083       .  S
O744        C745   1.329       .  A
C745        C746   1.391       .  A
C746        H750   1.083       .  S
C751        C756   1.380       .  A
C751        C752   1.398       .  A
C751        O757   1.311       .  A
C752        C753   1.397       .  A
C752        H763   1.082       .  S
C753        C762   1.357       .  A
C753        C754   1.379       .  A
C754        C755   1.410       .  A
C754        O760   1.323       .  A
C755        C756   1.408       .  A
C755        H764   1.081       .  S
C756        C759   1.372       .  A
O757        C758   1.328       .  A
C758        C759   1.393       .  A
C759        H765   1.082       .  S
O760        C761   1.335       .  A
C761        C762   1.389       .  A
C762        H766   1.082       .  S
C767        C772   1.379       .  A
C767        C768   1.415       .  A
C767        O773   1.332       .  A
C768        C769   1.415       .  A
C768        H779   1.083       .  S
C769        C778   1.376       .  A
C769        C770   1.380       .  A
C770        C771   1.398       .  A
C770        O776   1.315       .  A
C771        C772   1.398       .  A
C771        H780   1.083       .  S
C772        C775   1.353       .  A
O773        C774   1.338       .  A
C774        C775   1.392       .  A
C775        H781   1.083       .  S
O776        C777   1.329       .  A
C777        C778   1.398       .  A
C778        H782   1.082       .  S
C783        C788   1.380       .  A
C783        C784   1.408       .  A
C783        O789   1.322       .  A
C784        C785   1.407       .  A
C784        H795   1.083       .  S
C785        C794   1.369       .  A
C785        C786   1.381       .  A
C786        C787   1.398       .  A
C786        O792   1.313       .  A
C787        C788   1.397       .  A
C787        H796   1.083       .  S
C788        C791   1.356       .  A
O789        C790   1.333       .  A
C790        C791   1.388       .  A
C791        H797   1.083       .  S
O792        C793   1.329       .  A
C793        C794   1.393       .  A
C794        H798   1.082       .  S
C799        C804   1.381       .  A
C799        C800   1.404       .  A
C799        O805   1.322       .  A
C800        C801   1.405       .  A
C800        H811   1.082       .  S
C801        C810   1.361       .  A
C801        C802   1.381       .  A
C802        C803   1.401       .  A
C802        O808   1.320       .  A
C803        C804   1.402       .  A
C803        H812   1.082       .  S
C804        C807   1.358       .  A
O805        C806   1.331       .  A
C806        C807   1.389       .  A
C807        H813   1.082       .  S
O808        C809   1.330       .  A
C809        C810   1.393       .  A
C810        H814   1.082       .  S
C815        C820   1.380       .  A
C815        C816   1.407       .  A
C815        O821   1.315       .  A
C816        C817   1.402       .  A
C816        H827   1.082       .  S
C817        C826   1.371       .  A
C817        C818   1.379       .  A
C818        C819   1.406       .  A
C818        O824   1.315       .  A
C819        C820   1.402       .  A
C819        H828   1.082       .  S
C820        C823   1.370       .  A
O821        C822   1.332       .  A
C822        C823   1.391       .  A
C823        H829   1.082       .  S
O824        C825   1.333       .  A
C825        C826   1.391       .  A
C826        H830   1.082       .  S
C831        C836   1.381       .  A
C831        C832   1.398       .  A
C831        O837   1.312       .  A
C832        C833   1.396       .  A
C832        H843   1.083       .  S
C833        C842   1.355       .  A
C833        C834   1.381       .  A
C834        C835   1.406       .  A
C834        O840   1.320       .  A
C835        C836   1.405       .  A
C835        H844   1.083       .  S
C836        C839   1.367       .  A
O837        C838   1.328   1_554  A
C838        C839   1.393   1_556  A
C839        H845   1.082       .  S
O840        C841   1.332       .  A
C841        C842   1.388       .  A
C842        H846   1.083       .  S
C847        C852   1.381       .  A
C847        C848   1.405       .  A
C847        O853   1.314       .  A
C848        C849   1.401       .  A
C848        H859   1.083       .  S
C849        C858   1.367       .  A
C849        C850   1.381       .  A
C850        C851   1.402       .  A
C850        O856   1.312       .  A
C851        C852   1.398       .  A
C851        H860   1.083       .  S
C852        C855   1.364       .  A
O853        C854   1.331       .  A
C854        C855   1.389       .  A
C855        H861   1.083       .  S
O856        C857   1.329       .  A
C857        C858   1.391       .  A
C858        H862   1.082       .  S
C863        C868   1.381       .  A
C863        C864   1.402       .  A
C863        O869   1.318       .  A
C864        C865   1.401       .  A
C864        H875   1.082       .  S
C865        C874   1.360       .  A
C865        C866   1.381       .  A
C866        C867   1.401       .  A
C866        O872   1.317       .  A
C867        C868   1.400       .  A
C867        H876   1.082       .  S
C868        C871   1.358       .  A
O869        C870   1.330       .  A
C870        C871   1.389       .  A
C871        H877   1.082       .  S
O872        C873   1.329       .  A
C873        C874   1.389       .  A
C874        H878   1.082       .  S
C879        C884   1.381       .  A
C879        C880   1.396       .  A
C879        O885   1.315       .  A
C880        C881   1.397       .  A
C880        H891   1.083       .  S
C881        C890   1.352       .  A
C881        C882   1.380       .  A
C882        C883   1.410       .  A
C882        O888   1.327       .  A
C883        C884   1.410       .  A
C883        H892   1.083       .  S
C884        C887   1.369       .  A
O885        C886   1.328       .  A
C886        C887   1.396       .  A
C887        H893   1.083       .  S
O888        C889   1.334       .  A
C889        C890   1.389       .  A
C890        H894   1.083       .  S
C895        C900   1.380       .  A
C895        C896   1.397       .  A
C895        O901   1.310       .  A
C896        C897   1.395       .  A
C896        H907   1.082       .  S
C897        C906   1.357       .  A
C897        C898   1.380       .  A
C898        C899   1.412       .  A
C898        O904   1.322       .  A
C899        C900   1.409       .  A
C899        H908   1.082       .  S
C900        C903   1.375       .  A
O901        C902   1.328       .  A
C902        C903   1.395       .  A
C903        H909   1.082       .  S
O904        C905   1.335       .  A
C905        C906   1.388       .  A
C906        H910   1.083       .  S
C911        C916   1.380       .  A
C911        C912   1.401       .  A
C911        O917   1.322       .  A
C912        C913   1.403       .  A
C912        H923   1.083       .  S
C913        C922   1.354       .  A
C913        C914   1.380       .  A
C914        C915   1.411       .  A
C914        O920   1.332       .  A
C915        C916   1.413       .  A
C915        H924   1.082       .  S
C916        C919   1.368       .  A
O917        C918   1.331       .  A
C918        C919   1.398       .  A
C919        H925   1.082       .  S
O920        C921   1.336       .  A
C921        C922   1.395       .  A
C922        H926   1.083       .  S
C927        C932   1.379       .  A
C927        C928   1.409       .  A
C927        O933   1.318       .  A
C928        C929   1.405       .  A
C928        H939   1.083       .  S
C929        C938   1.374       .  A
C929        C930   1.379       .  A
C930        C931   1.405       .  A
C930        O936   1.314       .  A
C931        C932   1.401       .  A
C931        H940   1.083       .  S
C932        C935   1.369       .  A
O933        C934   1.334       .  A
C934        C935   1.391       .  A
C935        H941   1.082       .  S
O936        C937   1.332   1_556  A
C937        C938   1.393   1_554  A
C938        H942   1.082       .  S
C943        C948   1.381       .  A
C943        C944   1.404       .  A
C943        O949   1.321       .  A
C944        C945   1.404       .  A
C944        H955   1.083       .  S
C945        C954   1.362       .  A
C945        C946   1.381       .  A
C946        C947   1.400       .  A
C946        O952   1.317       .  A
C947        C948   1.400       .  A
C947        H956   1.083       .  S
C948        C951   1.356       .  A
O949        C950   1.331       .  A
C950        C951   1.390       .  A
C951        H957   1.083       .  S
O952        C953   1.330       .  A
C953        C954   1.392       .  A
C954        H958   1.083       .  S
C959        C964   1.379       .  A
C959        C960   1.417       .  A
C959        O965   1.331       .  A
C960        C961   1.416       .  A
C960        H971   1.082       .  S
C961        C970   1.379       .  A
C961        C962   1.380       .  A
C962        C963   1.396       .  A
C962        O968   1.312       .  A
C963        C964   1.395       .  A
C963        H972   1.083       .  S
C964        C967   1.353       .  A
O965        C966   1.338       .  A
C966        C967   1.388       .  A
C967        H973   1.083       .  S
O968        C969   1.328       .  A
C969        C970   1.399       .  A
C970        H974   1.082       .  S
C975        C980   1.381       .  A
C975        C976   1.404       .  A
C975        O981   1.323       .  A
C976        C977   1.405       .  A
C976        H987   1.082       .  S
C977        C986   1.359       .  A
C977        C978   1.381       .  A
C978        C979   1.402       .  A
C978        O984   1.321       .  A
C979        C980   1.403       .  A
C979        H988   1.082       .  S
C980        C983   1.357       .  A
O981        C982   1.331       .  A
C982        C983   1.391       .  A
C983        H989   1.083       .  S
O984        C985   1.330       .  A
C985        C986   1.393       .  A
C986        H990   1.083       .  S
C991        C996   1.380       .  A
C991        C992   1.410       .  A
C991        O997   1.326       .  A
C992        C993   1.410       .  A
C992       H1003   1.082       .  S
C993       C1002   1.369       .  A
C993        C994   1.381       .  A
C994        C995   1.392       .  A
C994       O1000   1.310       .  A
C995        C996   1.392       .  A
C995       H1004   1.082       .  S
C996        C999   1.347       .  A
O997        C998   1.334       .  A
C998        C999   1.387       .  A
C999       H1005   1.083       .  S
O1000      C1001   1.325       .  A
C1001      C1002   1.396       .  A
C1002      H1006   1.082       .  S
C1007      C1012   1.381       .  A
C1007      C1008   1.404       .  A
C1007      O1013   1.313       .  A
C1008      C1009   1.400   1_565  A
C1008      H1019   1.083       .  S
C1009      C1018   1.366       .  A
C1009      C1010   1.381       .  A
C1010      C1011   1.400       .  A
C1010      O1016   1.310       .  A
C1011      C1012   1.396   1_545  A
C1011      H1020   1.083       .  S
C1012      C1015   1.362       .  A
O1013      C1014   1.330       .  A
C1014      C1015   1.387       .  A
C1015      H1021   1.083       .  S
O1016      C1017   1.328       .  A
C1017      C1018   1.389       .  A
C1018      H1022   1.083       .  S
C1023      C1028   1.379       .  A
C1023      C1024   1.415       .  A
C1023      O1029   1.330       .  A
C1024      C1025   1.415       .  A
C1024      H1035   1.083       .  S
C1025      C1034   1.377       .  A
C1025      C1026   1.380       .  A
C1026      C1027   1.400       .  A
C1026      O1032   1.316       .  A
C1027      C1028   1.399       .  A
C1027      H1036   1.083       .  S
C1028      C1031   1.357       .  A
O1029      C1030   1.338       .  A
C1030      C1031   1.390       .  A
C1031      H1037   1.083       .  S
O1032      C1033   1.330       .  A
C1033      C1034   1.399       .  A
C1034      H1038   1.082       .  S
C1039      C1044   1.381       .  A
C1039      C1040   1.401       .  A
C1039      O1045   1.323       .  A
C1040      C1041   1.404       .  A
C1040      H1051   1.082       .  S
C1041      C1050   1.355       .  A
C1041      C1042   1.381       .  A
C1042      C1043   1.403       .  A
C1042      O1048   1.324       .  A
C1043      C1044   1.405       .  A
C1043      H1052   1.082       .  S
C1044      C1047   1.356       .  A
O1045      C1046   1.330   1_556  A
C1046      C1047   1.393   1_554  A
C1047      H1053   1.083   1_556  S
O1048      C1049   1.331       .  A
C1049      C1050   1.392       .  A
C1050      H1054   1.083       .  S
C1055      C1060   1.381       .  A
C1055      C1056   1.400       .  A
C1055      O1061   1.314       .  A
C1056      C1057   1.399       .  A
C1056      H1067   1.082       .  S
C1057      C1066   1.357       .  A
C1057      C1058   1.381       .  A
C1058      C1059   1.402       .  A
C1058      O1064   1.317       .  A
C1059      C1060   1.400       .  A
C1059      H1068   1.082       .  S
C1060      C1063   1.360       .  A
O1061      C1062   1.329       .  A
C1062      C1063   1.390       .  A
C1063      H1069   1.082       .  S
O1064      C1065   1.329       .  A
C1065      C1066   1.390       .  A
C1066      H1070   1.083       .  S
C1071      C1076   1.380       .  A
C1071      C1072   1.408       .  A
C1071      O1077   1.323       .  A
C1072      C1073   1.407       .  A
C1072      H1083   1.083       .  S
C1073      C1082   1.369       .  A
C1073      C1074   1.380       .  A
C1074      C1075   1.401       .  A
C1074      O1080   1.316       .  A
C1075      C1076   1.400       .  A
C1075      H1084   1.083       .  S
C1076      C1079   1.359       .  A
O1077      C1078   1.333       .  A
C1078      C1079   1.391       .  A
C1079      H1085   1.083       .  S
O1080      C1081   1.331       .  A
C1081      C1082   1.394       .  A
C1082      H1086   1.083       .  S
C1087      C1092   1.379       .  A
C1087      C1088   1.398       .  A
C1087      O1093   1.314       .  A
C1088      C1089   1.397   1_565  A
C1088      H1099   1.083       .  S
C1089      C1098   1.354       .  A
C1089      C1090   1.378       .  A
C1090      C1091   1.418   1_545  A
C1090      O1096   1.332       .  A
C1091      C1092   1.417       .  A
C1091      H1100   1.082   1_565  S
C1092      C1095   1.380       .  A
O1093      C1094   1.329       .  A
C1094      C1095   1.400       .  A
C1095      H1101   1.082       .  S
O1096      C1097   1.339       .  A
C1097      C1098   1.389       .  A
C1098      H1102   1.083       .  S
C1103      C1108   1.380       .  A
C1103      C1104   1.407       .  A
C1103      O1109   1.319       .  A
C1104      C1105   1.405       .  A
C1104      H1115   1.082       .  S
C1105      C1114   1.370       .  A
C1105      C1106   1.380       .  A
C1106      C1107   1.403       .  A
C1106      O1112   1.316       .  A
C1107      C1108   1.401       .  A
C1107      H1116   1.082       .  S
C1108      C1111   1.363       .  A
O1109      C1110   1.332       .  A
C1110      C1111   1.391       .  A
C1111      H1117   1.082   1_554  S
O1112      C1113   1.330       .  A
C1113      C1114   1.393       .  A
C1114      H1118   1.082       .  S
C1119      C1124   1.380       .  A
C1119      C1120   1.398       .  A
C1119      O1125   1.315       .  A
C1120      C1121   1.397       .  A
C1120      H1131   1.083       .  S
C1121      C1130   1.353       .  A
C1121      C1122   1.379       .  A
C1122      C1123   1.416       .  A
C1122      O1128   1.331       .  A
C1123      C1124   1.416       .  A
C1123      H1132   1.083       .  S
C1124      C1127   1.377       .  A
O1125      C1126   1.329       .  A
C1126      C1127   1.399       .  A
C1127      H1133   1.082       .  S
O1128      C1129   1.338       .  A
C1129      C1130   1.390       .  A
C1130      H1134   1.083       .  S
C1135      C1140   1.380       .  A
C1135      C1136   1.401       .  A
C1135      O1141   1.317       .  A
C1136      C1137   1.401       .  A
C1136      H1147   1.083       .  S
C1137      C1146   1.358       .  A
C1137      C1138   1.380       .  A
C1138      C1139   1.411       .  A
C1138      O1144   1.327       .  A
C1139      C1140   1.411       .  A
C1139      H1148   1.083       .  S
C1140      C1143   1.372       .  A
O1141      C1142   1.331       .  A
C1142      C1143   1.396       .  A
C1143      H1149   1.082       .  S
O1144      C1145   1.335       .  A
C1145      C1146   1.392       .  A
C1146      H1150   1.083       .  S
C1151      C1156   1.381       .  A
C1151      C1152   1.396       .  A
C1151      O1157   1.312       .  A
C1152      C1153   1.395       .  A
C1152      H1163   1.083       .  S
C1153      C1162   1.353       .  A
C1153      C1154   1.380       .  A
C1154      C1155   1.411       .  A
C1154      O1160   1.326       .  A
C1155      C1156   1.410       .  A
C1155      H1164   1.083       .  S
C1156      C1159   1.371       .  A
O1157      C1158   1.327       .  A
C1158      C1159   1.396       .  A
C1159      H1165   1.083       .  S
O1160      C1161   1.335       .  A
C1161      C1162   1.388       .  A
C1162      H1166   1.083       .  S
C1167      C1172   1.380       .  A
C1167      C1168   1.406   1_655  A
C1167      O1173   1.325       .  A
C1168      C1169   1.407       .  A
C1168      H1179   1.081       .  S
C1169      C1178   1.362       .  A
C1169      C1170   1.380       .  A
C1170      C1171   1.405       .  A
C1170      O1176   1.325       .  A
C1171      C1172   1.407   1_455  A
C1171      H1180   1.081   1_455  S
C1172      C1175   1.361       .  A
O1173      C1174   1.333       .  A
C1174      C1175   1.394       .  A
C1175      H1181   1.082       .  S
O1176      C1177   1.332       .  A
C1177      C1178   1.394       .  A
C1178      H1182   1.082       .  S
C1183      C1188   1.380       .  A
C1183      C1184   1.406       .  A
C1183      O1189   1.317       .  A
C1184      C1185   1.403       .  A
C1184      H1195   1.082       .  S
C1185      C1194   1.367       .  A
C1185      C1186   1.380       .  A
C1186      C1187   1.404       .  A
C1186      O1192   1.316       .  A
C1187      C1188   1.401       .  A
C1187      H1196   1.082       .  S
C1188      C1191   1.365       .  A
O1189      C1190   1.332   1_556  A
C1190      C1191   1.390   1_554  A
C1191      H1197   1.082       .  S
O1192      C1193   1.330       .  A
C1193      C1194   1.391       .  A
C1194      H1198   1.082       .  S
C1199      C1204   1.380       .  A
C1199      C1200   1.407       .  A
C1199      O1205   1.324       .  A
C1200      C1201   1.407       .  A
C1200      H1211   1.082       .  S
C1201      C1210   1.366       .  A
C1201      C1202   1.380       .  A
C1202      C1203   1.400       .  A
C1202      O1208   1.317       .  A
C1203      C1204   1.400       .  A
C1203      H1212   1.083       .  S
C1204      C1207   1.357       .  A
O1205      C1206   1.333       .  A
C1206      C1207   1.391       .  A
C1207      H1213   1.083       .  S
O1208      C1209   1.330       .  A
C1209      C1210   1.393       .  A
C1210      H1214   1.082       .  S
C1215      C1220   1.380       .  A
C1215      C1216   1.411       .  A
C1215      O1221   1.323       .  A
C1216      C1217   1.409       .  A
C1216      H1227   1.082       .  S
C1217      C1226   1.373       .  A
C1217      C1218   1.380       .  A
C1218      C1219   1.399       .  A
C1218      O1224   1.313       .  A
C1219      C1220   1.398       .  A
C1219      H1228   1.083       .  S
C1220      C1223   1.358       .  A
O1221      C1222   1.334       .  A
C1222      C1223   1.387       .  A
C1223      H1229   1.083   1_554  S
O1224      C1225   1.329       .  A
C1225      C1226   1.395       .  A
C1226      H1230   1.082       .  S
C1231      C1236   1.380       .  A
C1231      C1232   1.403       .  A
C1231      O1237   1.317       .  A
C1232      C1233   1.402       .  A
C1232      H1243   1.082       .  S
C1233      C1242   1.362       .  A
C1233      C1234   1.380       .  A
C1234      C1235   1.404       .  A
C1234      O1240   1.320       .  A
C1235      C1236   1.403       .  A
C1235      H1244   1.082       .  S
C1236      C1239   1.364       .  A
O1237      C1238   1.331       .  A
C1238      C1239   1.391       .  A
C1239      H1245   1.082       .  S
O1240      C1241   1.331       .  A
C1241      C1242   1.391       .  A
C1242      H1246   1.083       .  S
C1247      C1252   1.380       .  A
C1247      C1248   1.405       .  A
C1247      O1253   1.319       .  A
C1248      C1249   1.404       .  A
C1248      H1259   1.083       .  S
C1249      C1258   1.366       .  A
C1249      C1250   1.381       .  A
C1250      C1251   1.405       .  A
C1250      O1256   1.319       .  A
C1251      C1252   1.403       .  A
C1251      H1260   1.083       .  S
C1252      C1255   1.364       .  A
O1253      C1254   1.332       .  A
C1254      C1255   1.390       .  A
C1255      H1261   1.083       .  S
O1256      C1257   1.331       .  A
C1257      C1258   1.391       .  A
C1258      H1262   1.083       .  S
C1263      C1268   1.379       .  A
C1263      C1264   1.406       .  A
C1263      O1269   1.319       .  A
C1264      C1265   1.404   1_455  A
C1264      H1275   1.082       .  S
C1265      C1274   1.366       .  A
C1265      C1266   1.379       .  A
C1266      C1267   1.409       .  A
C1266      O1272   1.322       .  A
C1267      C1268   1.407   1_655  A
C1267      H1276   1.082       .  S
C1268      C1271   1.369       .  A
O1269      C1270   1.333       .  A
C1270      C1271   1.394       .  A
C1271      H1277   1.082       .  S
O1272      C1273   1.334       .  A
C1273      C1274   1.391       .  A
C1274      H1278   1.082       .  S
