geometry optimzed in LAMMPS
_audit_creation_date              2020-12-01 
_audit_creation_method            'lammps2cif' 
_symmetry_space_group_name_H-M    'P1' 
_symmetry_Int_Tables_number       1 
_symmetry_cell_setting            triclinic 
loop_ 
_symmetry_equiv_pos_as_xyz 
  x,y,z 
_cell_length_a                    66.25108996 
_cell_length_b                    71.57013396142891 
_cell_length_c                    36.947595225808946 
_cell_angle_alpha                 90.44492209039952 
_cell_angle_beta                  88.9392002851923 
_cell_angle_gamma                 90.20734881529984 
loop_ 
_atom_site_label 
_atom_site_type_symbol 
_atom_site_fract_x 
_atom_site_fract_y 
_atom_site_fract_z 
_atom_site_charge 
O1          O  0.63617667  0.93170862  0.15338103    -0.79500
O2          O  0.63401572  0.84569520  0.11645327    -0.64200
O3          O  0.61855828  0.89658558  0.13502134    -1.10800
C4          C  0.62196517  0.87796910  0.25747595     1.07400
O5          O  0.61125521  0.83498149  0.15579611    -0.77400
O6          O  0.58815603  0.85924478  0.19438093    -0.65000
Ni7        Ni  0.63148125  0.91691080  0.11015082     1.34900
C8          C  0.58138858  0.87575740  0.19278072     0.86100
O9          O  0.62400196  0.87388271  0.07313734    -0.77900
O10         O  0.62743056  0.90481899  0.06410952    -0.88200
C11         C  0.62390217  0.83228133  0.13004600     0.85700
O12         O  0.65853444  0.90780850  0.11173265    -0.66400
O13         O  0.61765839  0.86168065  0.24577388    -0.85700
C14         C  0.66585893  0.89156103  0.11496310     0.86500
C15         C  0.62477954  0.88814464  0.05279114     1.08100
H16         H  0.64301404  0.86836100  0.18166365     0.39900
O17         O  0.62895440  0.86965650  0.17567927    -1.08400
O18         O  0.59258124  0.89021111  0.19111236    -0.65000
Ni19       Ni  0.62128416  0.89490943  0.18635996     1.26300
O20         O  0.65524338  0.87693944  0.12017548    -0.65200
O21         O  0.62445194  0.89221425  0.23743726    -0.77500
C22         C  0.62468721  0.93407566  0.18097885     0.85900
O23         O  0.61468924  0.92067007  0.19477003    -0.64700
Ni24       Ni  0.61481043  0.84965773  0.19940494     1.27400
Ni25       Ni  0.62673102  0.87141398  0.12437471     1.26100
H26         H  0.60439571  0.89744362  0.12950873     0.40500
O27         O  0.63952995  0.92999832  0.65060697    -0.79500
O28         O  0.63544184  0.84369290  0.61895406    -0.64200
O29         O  0.62104303  0.89506320  0.63341845    -1.10800
C30         C  0.61991730  0.87982296  0.75727125     1.07400
O31         O  0.61375266  0.83292810  0.66050857    -0.77400
O32         O  0.58881185  0.85921142  0.68897805    -0.65000
Ni33       Ni  0.63497300  0.91464662  0.60800981     1.34900
C34         C  0.58242294  0.87585724  0.68752233     0.86100
O35         O  0.62665233  0.87121056  0.57360461    -0.77900
O36         O  0.63123452  0.90187059  0.56261111    -0.88200
C37         C  0.62570665  0.83037393  0.63367685     0.85700
O38         O  0.66171162  0.90494142  0.61111236    -0.66400
O39         O  0.61446024  0.86369830  0.74642719    -0.85700
C40         C  0.66851588  0.88857091  0.61534152     0.86500
C41         C  0.62823122  0.88506867  0.55234764     1.08100
H42         H  0.64405496  0.86726102  0.68364908     0.39900
O43         O  0.63015596  0.86876019  0.67677855    -1.08400
O44         O  0.59391230  0.89015184  0.68839654    -0.65000
Ni45       Ni  0.62281965  0.89439832  0.68487286     1.26300
O46         O  0.65741106  0.87434426  0.62142925    -0.65200
O47         O  0.62508064  0.89300769  0.73621652    -0.77500
C48         C  0.62763520  0.93313402  0.67736453     0.85900
O49         O  0.61660444  0.92034746  0.69076429    -0.64700
Ni50       Ni  0.61465114  0.84983749  0.70147069     1.27400
Ni51       Ni  0.62868550  0.86959197  0.62508295     1.26100
H52         H  0.60702573  0.89613368  0.62700555     0.40500
O53         O  0.85842382  0.92604901  0.02195659    -0.79500
O54         O  0.86014448  0.84154630  0.05838119    -0.64200
O55         O  0.87639084  0.89196142  0.04123233    -1.10800
C56         C  0.87925267  0.87453131  0.91844965     1.07400
O57         O  0.88007376  0.82861909  0.01594983    -0.77400
O58         O  0.90740759  0.85444687  0.99322867    -0.65000
Ni59       Ni  0.86308000  0.91226867  0.06566516     1.34900
C60         C  0.91444331  0.87094539  0.99277863     0.86100
O61         O  0.86986203  0.86971325  0.10233654    -0.77900
O62         O  0.86707475  0.90074192  0.11178336    -0.88200
C63         C  0.86848405  0.82745497  0.04360474     0.85700
O64         O  0.83608450  0.90294229  0.06402374    -0.66400
O65         O  0.88540325  0.85908979  0.93089952    -0.85700
C66         C  0.82873395  0.88675595  0.05930291     0.86500
C67         C  0.86938421  0.88409443  0.12289949     1.08100
H68         H  0.85277281  0.86347477  0.99166737     0.39900
O69         O  0.86663241  0.86498236  0.99888008    -1.08400
O70         O  0.90366917  0.88534239  0.98729561    -0.65000
Ni71       Ni  0.87482681  0.89030519  0.98975267     1.26300
O72         O  0.83936079  0.87227157  0.05327762    -0.65200
O73         O  0.87275427  0.88783869  0.93834839    -0.77500
C74         C  0.87128297  0.92915833  0.99681348     0.85900
O75         O  0.88188315  0.91608076  0.98312956    -0.64700
Ni76       Ni  0.88223739  0.84555421  0.97568630     1.27400
Ni77       Ni  0.86790888  0.86695502  0.05074625     1.26100
H78         H  0.89040328  0.89286990  0.04783208     0.40500
O79         O  0.86155768  0.92817500  0.52912350    -0.79500
O80         O  0.86345831  0.84109744  0.55225991    -0.64200
O81         O  0.87924087  0.89252378  0.54216882    -1.10800
C82         C  0.88068554  0.87990597  0.41757137     1.07400
O83         O  0.88311553  0.83016810  0.50734705    -0.77400
O84         O  0.90989378  0.85722633  0.48852191    -0.65000
Ni85       Ni  0.86632574  0.91192247  0.57002791     1.34900
C86         C  0.91676324  0.87376138  0.49005113     0.86100
O87         O  0.87343240  0.86771507  0.60009084    -0.77900
O88         O  0.87055982  0.89829989  0.61402773    -0.88200
C89         C  0.87178518  0.82766719  0.53498267     0.85700
O90         O  0.83926228  0.90269978  0.56728715    -0.66400
O91         O  0.88752292  0.86422525  0.42751463    -0.85700
C92         C  0.83183688  0.88666037  0.56091098     0.86500
C93         C  0.87305469  0.88126498  0.62269132     1.08100
H94         H  0.85520664  0.86574046  0.48957086     0.39900
O95         O  0.86912716  0.86711945  0.49651022    -1.08400
O96         O  0.90583331  0.88823397  0.48638546    -0.65000
Ni97       Ni  0.87694817  0.89284098  0.49076589     1.26300
O98         O  0.84239057  0.87233864  0.55281578    -0.65200
O99         O  0.87408066  0.89227033  0.43948339    -0.77500
C100        C  0.87320481  0.93168272  0.50220487     0.85900
O101        O  0.88365104  0.91891545  0.48701528    -0.64700
Ni102      Ni  0.88478590  0.84882605  0.47000329     1.27400
Ni103      Ni  0.87094373  0.86702659  0.54834424     1.26100
H104        H  0.89334589  0.89318686  0.54823852     0.40500
O105        O  0.86073054  0.08427284  0.39732636    -0.79500
O106        O  0.86403943  0.17248143  0.37680346    -0.64200
O107        O  0.87785876  0.12042500  0.38433768    -1.10800
C108        C  0.87596531  0.13365933  0.51037821     1.07400
O109        O  0.88661342  0.18111108  0.41715028    -0.77400
O110        O  0.90920947  0.15492200  0.44921349    -0.65000
Ni111      Ni  0.86356184  0.10167610  0.35749912     1.34900
C112        C  0.91576162  0.13853839  0.44333119     0.86100
O113        O  0.87321425  0.14597449  0.32765840    -0.77900
O114        O  0.86566074  0.11614209  0.31380336    -0.88200
C115        C  0.87440056  0.18509045  0.39232139     0.85700
O116        O  0.83707491  0.11095158  0.36786168    -0.66400
O117        O  0.87977435  0.15047725  0.50158163    -0.85700
C118        C  0.83042440  0.12740619  0.37270104     0.86500
C119        C  0.87014724  0.13283988  0.30501044     1.08100
H120        H  0.85428713  0.14680568  0.43819457     0.39900
O121        O  0.86832596  0.14569547  0.43097101    -1.08400
O122        O  0.90445499  0.12435976  0.43873579    -0.65000
Ni123      Ni  0.87575890  0.11992869  0.43606174     1.26300
O124        O  0.84169465  0.14174526  0.37613828    -0.65200
O125        O  0.87334782  0.12037183  0.48782018    -0.77500
C126        C  0.87256282  0.08083785  0.42314984     0.85900
O127        O  0.88232486  0.09377952  0.43887672    -0.64700
Ni128      Ni  0.88268397  0.16448131  0.45766189     1.27400
Ni129      Ni  0.87046558  0.14624876  0.37931834     1.26100
H130        H  0.89188871  0.11932103  0.37706764     0.40500
O131        O  0.85907547  0.08143383  0.90905822    -0.79500
O132        O  0.86517364  0.16526094  0.86720007    -0.64200
O133        O  0.87844300  0.11467401  0.88720545    -1.10800
C134        C  0.87766796  0.13536850  0.00929945     1.07400
O135        O  0.88735316  0.17696729  0.90559386    -0.77400
O136        O  0.91057547  0.15237844  0.94060655    -0.65000
Ni137      Ni  0.86418567  0.09456504  0.86441966     1.34900
C138        C  0.91667582  0.13561695  0.93994703     0.86100
O139        O  0.87407955  0.13616872  0.82494575    -0.77900
O140        O  0.86851701  0.10535465  0.81734013    -0.88200
C141        C  0.87547108  0.17875511  0.87930091     0.85700
O142        O  0.83764405  0.10484111  0.86783196    -0.66400
O143        O  0.88256017  0.15121384  0.99637000    -0.85700
C144        C  0.83125066  0.12146215  0.87080498     0.86500
C145        C  0.87226696  0.12163860  0.80520594     1.08100
H146        H  0.85534194  0.14456433  0.93465928     0.39900
O147        O  0.86932094  0.14270719  0.92766888    -1.08400
O148        O  0.90498373  0.12149981  0.94068844    -0.65000
Ni149      Ni  0.87620789  0.11740929  0.93868537     1.26300
O150        O  0.84270751  0.13560910  0.87420199    -0.65200
O151        O  0.87370066  0.12101945  0.99006810    -0.77500
C152        C  0.87171246  0.07846185  0.93374399     0.85900
O153        O  0.88220558  0.09162029  0.94695564    -0.64700
Ni154      Ni  0.88442432  0.16264287  0.94946392     1.27400
Ni155      Ni  0.87143646  0.13978987  0.87617300     1.26100
H156        H  0.89249007  0.11306670  0.88044901     0.40500
O157        O  0.63574222  0.08092209  0.31644192    -0.79500
O158        O  0.63259289  0.16828034  0.34625895    -0.64200
O159        O  0.61851055  0.11658488  0.33332025    -1.10800
C160        C  0.62117815  0.13185656  0.20868638     1.07400
O161        O  0.61064084  0.17779232  0.30583254    -0.77400
O162        O  0.58770358  0.15227401  0.27210349    -0.65000
Ni163      Ni  0.63264782  0.09734198  0.35823555     1.34900
C164        C  0.58101020  0.13584012  0.27671150     0.86100
O165        O  0.62286132  0.14093892  0.39255791    -0.77900
O166        O  0.63030935  0.11086756  0.40336732    -0.88200
C167        C  0.62268407  0.18118012  0.33137517     0.85700
O168        O  0.65926545  0.10689722  0.34983979    -0.66400
O169        O  0.61708038  0.14846139  0.21882808    -0.85700
C170        C  0.66590570  0.12349688  0.34730357     0.86500
C171        C  0.62589113  0.12737392  0.41382453     1.08100
H172        H  0.64260663  0.14392917  0.28258671     0.39900
O173        O  0.62851303  0.14268937  0.28937235    -1.08400
O174        O  0.59222509  0.12156086  0.27926893    -0.65000
Ni175      Ni  0.62090056  0.11711356  0.28171187     1.26300
O176        O  0.65463609  0.13777414  0.34473632    -0.65200
O177        O  0.62374520  0.11833529  0.23018947    -0.77500
C178        C  0.62416775  0.07816139  0.28981867     0.85900
O179        O  0.61412084  0.09127494  0.27613861    -0.64700
Ni180      Ni  0.61432741  0.16179954  0.26400498     1.27400
Ni181      Ni  0.62596666  0.14223503  0.34103592     1.26100
H182        H  0.60445016  0.11529861  0.34028943     0.40500
O183        O  0.63867119  0.08016781  0.81194786    -0.79500
O184        O  0.63268680  0.16653154  0.84765304    -0.64200
O185        O  0.61987213  0.11462939  0.83264755    -1.10800
C186        C  0.61782149  0.13205275  0.70952140     1.07400
O187        O  0.60895425  0.17604080  0.81065626    -0.77400
O188        O  0.58560833  0.14988719  0.77961722    -0.65000
Ni189      Ni  0.63516906  0.09536578  0.85525123     1.34900
C190        C  0.57990894  0.13303117  0.78235649     0.86100
O191        O  0.62525546  0.13807255  0.89304995    -0.77900
O192        O  0.63269380  0.10775958  0.90148697    -0.88200
C193        C  0.62221443  0.17947745  0.83414320     0.85700
O194        O  0.66127782  0.10600711  0.84704516    -0.66400
O195        O  0.61241316  0.14801834  0.72151086    -0.85700
C196        C  0.66729265  0.12276507  0.84389591     0.86500
C197        C  0.62850745  0.12409501  0.91320531     1.08100
H198        H  0.64120021  0.14390884  0.78161576     0.39900
O199        O  0.62743861  0.14184357  0.78978379    -1.08400
O200        O  0.59192352  0.11921213  0.78105113    -0.65000
Ni201      Ni  0.62093255  0.11609207  0.78099823     1.26300
O202        O  0.65552308  0.13670886  0.84184177    -0.65200
O203        O  0.62247525  0.11841602  0.72952020    -0.77500
C204        C  0.62659717  0.07720485  0.78617451     0.85900
O205        O  0.61546725  0.09001619  0.77412121    -0.64700
Ni206      Ni  0.61123020  0.16065898  0.76768100     1.27400
Ni207      Ni  0.62663982  0.14037571  0.84146371     1.26100
H208        H  0.60603069  0.11283798  0.84059230     0.40500
O209        O  0.11058353  0.82701002  0.04318459    -0.79500
O210        O  0.11234168  0.91467760  0.02106346    -0.64200
O211        O  0.12702959  0.86299054  0.02896865    -1.10800
C212        C  0.12373589  0.87715296  0.15506896     1.07400
O213        O  0.13555074  0.92340789  0.06009086    -0.77400
O214        O  0.15752782  0.89827122  0.09749461    -0.65000
Ni215      Ni  0.11253010  0.84405276  0.00295662     1.34900
C216        C  0.16479745  0.88218499  0.09109516     0.86100
O217        O  0.12124348  0.88823688  0.97218720    -0.77900
O218        O  0.11352471  0.85836832  0.95909558    -0.88200
C219        C  0.12334718  0.92725686  0.03507912     0.85700
O220        O  0.08599671  0.85286745  0.01440266    -0.66400
O221        O  0.12626513  0.89415378  0.14597634    -0.85700
C222        C  0.07914054  0.86926765  0.01878375     0.86500
C223        C  0.11758838  0.87508482  0.94992802     1.08100
H224        H  0.10316006  0.88881351  0.08269810     0.39900
O225        O  0.11721633  0.88815494  0.07538020    -1.08400
O226        O  0.15410088  0.86791355  0.08346982    -0.65000
Ni227      Ni  0.12544931  0.86267929  0.08083008     1.26300
O228        O  0.09026636  0.88375573  0.02135358    -0.65200
O229        O  0.12316513  0.86343355  0.13280588    -0.77500
C230        C  0.12340751  0.82357182  0.06734819     0.85900
O231        O  0.13282707  0.83664126  0.08347139    -0.64700
Ni232      Ni  0.13057586  0.90757643  0.10168985     1.27400
Ni233      Ni  0.11903600  0.88860507  0.02380835     1.26100
H234        H  0.14101349  0.86204158  0.02129582     0.40500
O235        O  0.11052432  0.82763041  0.54928740    -0.79500
O236        O  0.11488562  0.91386026  0.51757879    -0.64200
O237        O  0.12864066  0.86232992  0.53069618    -1.10800
C238        C  0.12518116  0.87892399  0.65546764     1.07400
O239        O  0.13671797  0.92408686  0.55800310    -0.77400
O240        O  0.15909849  0.89922850  0.59572018    -0.65000
Ni241      Ni  0.11368876  0.84298976  0.50674939     1.34900
C242        C  0.16639338  0.88302599  0.59053802     0.86100
O243        O  0.12374052  0.88598591  0.47141323    -0.77900
O244        O  0.11584528  0.85579808  0.46123801    -0.88200
C245        C  0.12504334  0.92700984  0.53168197     0.85700
O246        O  0.08730444  0.85282068  0.51569750    -0.66400
O247        O  0.12804792  0.89570380  0.64529879    -0.85700
C248        C  0.08094153  0.86945096  0.51862176     0.86500
C249        C  0.12024322  0.87219694  0.45043001     1.08100
H250        H  0.10486011  0.88950030  0.58158795     0.39900
O251        O  0.11896907  0.88865714  0.57471445    -1.08400
O252        O  0.15567527  0.86850573  0.58472423    -0.65000
Ni253      Ni  0.12696377  0.86322735  0.58239052     1.26300
O254        O  0.09246564  0.88364942  0.52042043    -0.65200
O255        O  0.12447804  0.86489140  0.63411105    -0.77500
C256        C  0.12357113  0.82417402  0.57303921     0.85900
O257        O  0.13396322  0.83721269  0.58716762    -0.64700
Ni258      Ni  0.13212928  0.90852160  0.60019851     1.27400
Ni259      Ni  0.12123252  0.88786425  0.52303333     1.26100
H260        H  0.14260329  0.86090503  0.52318905     0.40500
O261        O  0.38567811  0.82944073  0.17077073    -0.79500
O262        O  0.38164379  0.91457758  0.20866977    -0.64200
O263        O  0.36778321  0.86323283  0.19375343    -1.10800
C264        C  0.36658830  0.88150134  0.07009827     1.07400
O265        O  0.35730091  0.92424764  0.17311477    -0.77400
O266        O  0.33431859  0.89988296  0.13487019    -0.65000
Ni267      Ni  0.38333995  0.84378720  0.21503751     1.34900
C268        C  0.32761134  0.88345599  0.13975506     0.86100
O269        O  0.37464464  0.88622569  0.25388113    -0.77900
O270        O  0.38181832  0.85580890  0.26177898    -0.88200
C271        C  0.37034473  0.92742255  0.19724716     0.85700
O272        O  0.40956404  0.85400764  0.20546006    -0.66400
O273        O  0.36385584  0.89809853  0.08195081    -0.85700
C274        C  0.41581181  0.87064430  0.20157494     0.86500
C275        C  0.37792266  0.87215988  0.27379423     1.08100
H276        H  0.38934999  0.89142627  0.14208313     0.39900
O277        O  0.37555339  0.89015039  0.15065844    -1.08400
O278        O  0.33886690  0.86925270  0.14351490    -0.65000
Ni279      Ni  0.36767031  0.86477351  0.14205026     1.26300
O280        O  0.40419860  0.88473612  0.20091614    -0.65200
O281        O  0.36821796  0.86720757  0.09024934    -0.77500
C282        C  0.37162175  0.82591955  0.14883133     0.85900
O283        O  0.36079792  0.83885824  0.13627656    -0.64700
Ni284      Ni  0.36092220  0.90994987  0.12872340     1.27400
Ni285      Ni  0.37532537  0.88866670  0.20231350     1.26100
H286        H  0.35407652  0.86165202  0.20262694     0.40500
O287        O  0.38710478  0.83096165  0.67192856    -0.79500
O288        O  0.38350932  0.91646287  0.70716916    -0.64200
O289        O  0.36913149  0.86510771  0.69340802    -1.10800
C290        C  0.36975867  0.88201089  0.56921021     1.07400
O291        O  0.36033222  0.92638944  0.66937722    -0.77400
O292        O  0.33721326  0.90192306  0.63146642    -0.65000
Ni293      Ni  0.38455650  0.84580711  0.71558875     1.34900
C294        C  0.33002673  0.88565555  0.63631133     0.86100
O295        O  0.37559877  0.88857008  0.75312523    -0.77900
O296        O  0.38286966  0.85826434  0.76199221    -0.88200
C297        C  0.37280748  0.92942601  0.69450923     0.85700
O298        O  0.41085575  0.85577696  0.70560098    -0.66400
O299        O  0.36726280  0.89879825  0.58007419    -0.85700
C300        C  0.41720477  0.87234696  0.70134166     0.86500
C301        C  0.37872273  0.87465693  0.77356353     1.08100
H302        H  0.39172916  0.89244801  0.64160482     0.39900
O303        O  0.37780670  0.89152084  0.64964895    -1.08400
O304        O  0.34085463  0.87124105  0.64137990    -0.65000
Ni305      Ni  0.36961369  0.86614660  0.64169621     1.26300
O306        O  0.40570022  0.88649260  0.70088186    -0.65200
O307        O  0.37091199  0.86796822  0.59002091    -0.77500
C308        C  0.37342429  0.82730988  0.64932691     0.85900
O309        O  0.36253073  0.84016203  0.63651531    -0.64700
Ni310      Ni  0.36411108  0.91134962  0.62602140     1.27400
Ni311      Ni  0.37689426  0.89056998  0.70138785     1.26100
H312        H  0.35533060  0.86365708  0.70187172     0.40500
O313        O  0.38267095  0.17438759  0.30938338    -0.79500
O314        O  0.38311445  0.08639580  0.28038676    -0.64200
O315        O  0.36803600  0.13758229  0.29584640    -1.10800
C316        C  0.37397026  0.12150299  0.41994526     1.07400
O317        O  0.36220565  0.07575411  0.32307297    -0.77400
O318        O  0.33941626  0.10056095  0.36139936    -0.65000
Ni319      Ni  0.38226539  0.15680225  0.26951627     1.34900
C320        C  0.33213912  0.11681873  0.35812586     0.86100
O321        O  0.37194619  0.11340852  0.23596396    -0.77900
O322        O  0.38274653  0.14253332  0.22503768    -0.88200
C323        C  0.37353679  0.07309995  0.29539409     0.85700
O324        O  0.40847623  0.14844466  0.28203263    -0.66400
O325        O  0.37020259  0.10480793  0.40994374    -0.85700
C326        C  0.41552734  0.13200421  0.28226181     0.86500
C327        C  0.37683789  0.12650658  0.21452588     1.08100
H328        H  0.39362198  0.11064806  0.34322019     0.39900
O329        O  0.37940016  0.11148267  0.33816222    -1.08400
O330        O  0.34286728  0.13142876  0.35353548    -0.65000
Ni331      Ni  0.37136656  0.13679918  0.34732751     1.26300
O332        O  0.40459505  0.11734748  0.28070292    -0.65200
O333        O  0.37531429  0.13528527  0.39847793    -0.77500
C334        C  0.37237394  0.17622829  0.33850550     0.85900
O335        O  0.36413723  0.16249011  0.35456191    -0.64700
Ni336      Ni  0.36648544  0.09169443  0.36484347     1.27400
Ni337      Ni  0.37597609  0.11212448  0.28697518     1.26100
H338        H  0.35388371  0.13872423  0.29042831     0.40500
O339        O  0.38262302  0.17565317  0.81180293    -0.79500
O340        O  0.38004033  0.08794755  0.77855417    -0.64200
O341        O  0.36783275  0.13955312  0.79507389    -1.10800
C342        C  0.36764409  0.12129298  0.91893454     1.07400
O343        O  0.35691637  0.07789434  0.81797217    -0.77400
O344        O  0.33464222  0.10293054  0.85616019    -0.65000
Ni345      Ni  0.38514365  0.15783668  0.77250373     1.34900
C346        C  0.32834601  0.11944855  0.85185085     0.86100
O347        O  0.37232447  0.11632638  0.73479847    -0.77900
O348        O  0.38892174  0.14336313  0.72846714    -0.88200
C349        C  0.36905452  0.07502712  0.79151797     0.85700
O350        O  0.40903806  0.14797043  0.79288814    -0.66400
O351        O  0.36403410  0.10479416  0.90759565    -0.85700
C352        C  0.41514837  0.13122440  0.79053525     0.86500
C353        C  0.38082541  0.12871287  0.71542064     1.08100
H354        H  0.38969861  0.11076985  0.84411616     0.39900
O355        O  0.37578745  0.11228374  0.83735856    -1.08400
O356        O  0.33986140  0.13359000  0.84829110    -0.65000
Ni357      Ni  0.36866412  0.13777989  0.84684296     1.26300
O358        O  0.40352761  0.11749319  0.78336654    -0.65200
O359        O  0.36998680  0.13536273  0.89840628    -0.77500
C360        C  0.37115627  0.17732052  0.83957321     0.85900
O361        O  0.36230961  0.16356087  0.85444691    -0.64700
Ni362      Ni  0.36095903  0.09269676  0.86130614     1.27400
Ni363      Ni  0.37439145  0.11388078  0.78592498     1.26100
H364        H  0.35418264  0.14179281  0.78746358     0.40500
O365        O  0.11255579  0.17514089  0.43971337    -0.79500
O366        O  0.11281261  0.08773932  0.46142970    -0.64200
O367        O  0.12853107  0.13937133  0.45444126    -1.10800
C368        C  0.12750651  0.12636584  0.32789286     1.07400
O369        O  0.13590899  0.07879255  0.42078412    -0.77400
O370        O  0.15938914  0.10395196  0.38473103    -0.65000
Ni371      Ni  0.11390097  0.15844184  0.48039972     1.34900
C372        C  0.16704092  0.11972300  0.39250714     0.86100
O373        O  0.12108865  0.11415234  0.51109177    -0.77900
O374        O  0.11440490  0.14428042  0.52435802    -0.88200
C375        C  0.12341345  0.07502778  0.44626314     0.85700
O376        O  0.08743470  0.14967195  0.46969223    -0.66400
O377        O  0.12919325  0.10922635  0.33631853    -0.85700
C378        C  0.08041289  0.13342806  0.46409848     0.86500
C379        C  0.11787949  0.12749818  0.53349080     1.08100
H380        H  0.10520326  0.11433554  0.40021390     0.39900
O381        O  0.11913902  0.11463423  0.40745401    -1.08400
O382        O  0.15667279  0.13417264  0.40047729    -0.65000
Ni383      Ni  0.12819321  0.14002566  0.40266953     1.26300
O384        O  0.09128172  0.11884669  0.46131958    -0.65200
O385        O  0.12712486  0.13983871  0.35069043    -0.77500
C386        C  0.12644003  0.17885676  0.41672986     0.85900
O387        O  0.13638595  0.16590914  0.40089051    -0.64700
Ni388      Ni  0.13225376  0.09524548  0.38002765     1.27400
Ni389      Ni  0.11997220  0.11383574  0.45918406     1.26100
H390        H  0.14234694  0.14015180  0.46226433     0.40500
O391        O  0.11082877  0.17626321  0.94289555    -0.79500
O392        O  0.11545787  0.08791522  0.96556386    -0.64200
O393        O  0.12737907  0.14013736  0.95375163    -1.10800
C394        C  0.12328865  0.12497808  0.82855166     1.07400
O395        O  0.13698696  0.07875355  0.92245385    -0.77400
O396        O  0.15850509  0.10552531  0.88722350    -0.65000
Ni397      Ni  0.11157109  0.15806191  0.98104001     1.34900
C398        C  0.16467333  0.12220821  0.89085506     0.86100
O399        O  0.12475532  0.11519024  0.01179671    -0.77900
O400        O  0.11116831  0.14314221  0.02419128    -0.88200
C401        C  0.12569223  0.07522143  0.94974400     0.85700
O402        O  0.08627799  0.14831476  0.96600119    -0.66400
O403        O  0.12827919  0.10854922  0.83773289    -0.85700
C404        C  0.08033408  0.13147184  0.96471511     0.86500
C405        C  0.11842710  0.12759992  0.03387520     1.08100
H406        H  0.10375663  0.11215593  0.90402605     0.39900
O407        O  0.11786064  0.11382605  0.90944604    -1.08400
O408        O  0.15305955  0.13615118  0.89576593    -0.65000
Ni409      Ni  0.12430826  0.13974196  0.90215885     1.26300
O410        O  0.09213497  0.11752406  0.96667361    -0.65200
O411        O  0.12064248  0.13848602  0.85076721    -0.77500
C412        C  0.12167574  0.17912241  0.91481370     0.85900
O413        O  0.13017327  0.16595147  0.89710815    -0.64700
Ni414      Ni  0.13220713  0.09509074  0.88189316     1.27400
Ni415      Ni  0.12104434  0.11413035  0.96070641     1.26100
H416        H  0.14138801  0.14214382  0.95954177     0.40500
O417        O  0.92662765  0.36568220  0.38523707    -0.79500
O418        O  0.83417937  0.37076105  0.35605950    -0.64200
O419        O  0.88991060  0.38281705  0.36587892    -1.10800
C420        C  0.87161827  0.38412742  0.49110199     1.07400
O421        O  0.82571432  0.39450562  0.39199314    -0.77400
O422        O  0.85201067  0.41485059  0.43160853    -0.65000
Ni423      Ni  0.91045575  0.36812824  0.34228547     1.34900
C424        C  0.86968108  0.42087213  0.42477212     0.86100
O425        O  0.86414364  0.37627575  0.30783203    -0.77900
O426        O  0.89693656  0.36995579  0.29653894    -0.88200
C427        C  0.82115874  0.38208978  0.36872919     0.85700
O428        O  0.89917332  0.34386060  0.35126999    -0.66400
O429        O  0.85347780  0.38671944  0.48131585    -0.85700
C430        C  0.88127740  0.33815182  0.35729327     0.86500
C431        C  0.87908802  0.37357016  0.28629427     1.08100
H432        H  0.85983928  0.36368553  0.41973253     0.39900
O433        O  0.86131814  0.37636851  0.41129010    -1.08400
O434        O  0.88460827  0.41017510  0.41766199    -0.65000
Ni435      Ni  0.88874043  0.38326720  0.41761608     1.26300
O436        O  0.86618436  0.34909257  0.36026984    -0.65200
O437        O  0.88672268  0.38291112  0.46938581    -0.77500
C438        C  0.93006811  0.37767867  0.41002099     0.85900
O439        O  0.91664532  0.38883475  0.42167709    -0.64700
Ni440      Ni  0.84060384  0.39033592  0.43559545     1.27400
Ni441      Ni  0.86229102  0.37602701  0.35963079     1.26100
H442        H  0.89161856  0.39544683  0.35726100     0.40500
O443        O  0.88946264  0.33138036  0.89104949    -0.79500
O444        O  0.88250001  0.41647298  0.92294848    -0.64200
O445        O  0.86981865  0.36488963  0.90994833    -1.10800
C446        C  0.87352423  0.38125092  0.78528793     1.07400
O447        O  0.85866476  0.42439985  0.88479205    -0.77400
O448        O  0.83811009  0.39967279  0.84376811    -0.65000
Ni449      Ni  0.88426124  0.34587073  0.93451347     1.34900
C450        C  0.83147845  0.38331548  0.84961078     0.86100
O451        O  0.87439158  0.38881829  0.96963567    -0.77900
O452        O  0.87973392  0.35828720  0.98039349    -0.88200
C453        C  0.87111891  0.42863306  0.90929089     0.85700
O454        O  0.91079533  0.35631714  0.93036377    -0.66400
O455        O  0.87013531  0.39799327  0.79568242    -0.85700
C456        C  0.91722573  0.37283275  0.92553880     0.86500
C457        C  0.87604849  0.37497218  0.99088188     1.08100
H458        H  0.89286770  0.39249203  0.85915016     0.39900
O459        O  0.87882854  0.39111675  0.86620043    -1.08400
O460        O  0.84281612  0.36947075  0.85607574    -0.65000
Ni461      Ni  0.87170263  0.36563834  0.85821728     1.26300
O462        O  0.90572785  0.38671697  0.92025149    -0.65200
O463        O  0.87423160  0.36728104  0.80644185    -0.77500
C464        C  0.87678812  0.32736885  0.86677418     0.85900
O465        O  0.86572185  0.33971606  0.85301775    -0.64700
Ni466      Ni  0.86467743  0.41019429  0.84134670     1.27400
Ni467      Ni  0.87682947  0.39042832  0.91787143     1.26100
H468        H  0.85581022  0.36341562  0.91713083     0.40500
O469        O  0.88009916  0.67740809  0.00376765    -0.79500
O470        O  0.87876664  0.58999198  0.96968192    -0.64200
O471        O  0.86491640  0.64121897  0.98738775    -1.10800
C472        C  0.86911920  0.62228822  0.11053873     1.07400
O473        O  0.85575655  0.58012464  0.00927718    -0.77400
O474        O  0.83423614  0.60416328  0.05101589    -0.65000
Ni475      Ni  0.88007400  0.66047124  0.96281655     1.34900
C476        C  0.82762230  0.62067215  0.04832053     0.86100
O477        O  0.86916177  0.61792804  0.92613580    -0.77900
O478        O  0.88098980  0.64690131  0.91742349    -0.88200
C479        C  0.86819480  0.57700117  0.98344154     0.85700
O480        O  0.90577248  0.65127379  0.97644507    -0.66400
O481        O  0.86523954  0.60587543  0.09904568    -0.85700
C482        C  0.91227067  0.63463164  0.97643525     0.86500
C483        C  0.87480450  0.63118629  0.90567129     1.08100
H484        H  0.88888070  0.61273491  0.03418634     0.39900
O485        O  0.87479575  0.61410528  0.02846247    -1.08400
O486        O  0.83887782  0.63490985  0.04382901    -0.65000
Ni487      Ni  0.86754692  0.63936458  0.03904073     1.26300
O488        O  0.90099876  0.62031496  0.97299856    -0.65200
O489        O  0.87069791  0.63661184  0.09035529    -0.77500
C490        C  0.86936552  0.67886671  0.03248933     0.85900
O491        O  0.86099538  0.66498217  0.04771717    -0.64700
Ni492      Ni  0.86086672  0.59421027  0.05287709     1.27400
Ni493      Ni  0.87223517  0.61573994  0.97724551     1.26100
H494        H  0.85088582  0.64281794  0.98147386     0.40500
O495        O  0.87973778  0.67361981  0.49216095    -0.79500
O496        O  0.87922161  0.58441592  0.47232930    -0.64200
O497        O  0.86627713  0.63636287  0.48404675    -1.10800
C498        C  0.86970187  0.62270966  0.60948240     1.07400
O499        O  0.85836654  0.57469689  0.51597870    -0.77400
O500        O  0.83553489  0.60164987  0.54909709    -0.65000
Ni501      Ni  0.88264222  0.65378898  0.45684530     1.34900
C502        C  0.82927386  0.61831490  0.54656332     0.86100
O503        O  0.86931145  0.61115309  0.42639596    -0.77900
O504        O  0.88679918  0.63722724  0.41579123    -0.88200
C505        C  0.86946565  0.57148899  0.48818597     0.85700
O506        O  0.90669826  0.64546229  0.47889323    -0.66400
O507        O  0.86464082  0.60618534  0.60033227    -0.85700
C508        C  0.91318499  0.62880070  0.47845064     0.86500
C509        C  0.87798598  0.62247366  0.40498925     1.08100
H510        H  0.89029284  0.60913873  0.53419164     0.39900
O511        O  0.87619754  0.61058991  0.52863684    -1.08400
O512        O  0.84083140  0.63242641  0.54249940    -0.65000
Ni513      Ni  0.86953338  0.63646154  0.53574635     1.26300
O514        O  0.90199998  0.61466625  0.47193524    -0.65200
O515        O  0.87322055  0.63578380  0.58706797    -0.77500
C516        C  0.87055260  0.67605021  0.52228604     0.85900
O517        O  0.86364354  0.66263419  0.54119936    -0.64700
Ni518      Ni  0.86193402  0.59193354  0.55620651     1.27400
Ni519      Ni  0.87305901  0.61047513  0.47738983     1.26100
H520        H  0.85228901  0.63821123  0.47808487     0.40500
O521        O  0.61743890  0.68055878  0.15726990    -0.79500
O522        O  0.61631479  0.59295927  0.18956390    -0.64200
O523        O  0.63168069  0.64371886  0.16998632    -1.10800
C524        C  0.62292951  0.62597171  0.04764180     1.07400
O525        O  0.63363819  0.58026696  0.14370273    -0.77400
O526        O  0.65763814  0.60508062  0.10759935    -0.65000
Ni527      Ni  0.61812987  0.66326119  0.19706090     1.34900
C528        C  0.66503238  0.62145954  0.10702779     0.86100
O529        O  0.62983096  0.62067159  0.23076267    -0.77900
O530        O  0.61798642  0.64942625  0.24170104    -0.88200
C531        C  0.62370377  0.57884472  0.17327830     0.85700
O532        O  0.59166703  0.65477640  0.18571315    -0.66400
O533        O  0.62779690  0.60971287  0.05787634    -0.85700
C534        C  0.58464073  0.63832133  0.18810867     0.86500
C535        C  0.62457210  0.63375453  0.25220893     1.08100
H536        H  0.60394270  0.61591247  0.12676562     0.39900
O537        O  0.61833777  0.61686995  0.13011671    -1.08400
O538        O  0.65447242  0.63627844  0.10943162    -0.65000
Ni539      Ni  0.62634264  0.64208718  0.11919850     1.26300
O540        O  0.59564309  0.62386175  0.19035826    -0.65200
O541        O  0.62042603  0.63981493  0.06893615    -0.77500
C542        C  0.62665170  0.68183645  0.12695865     0.85900
O543        O  0.63372419  0.66768535  0.11014590    -0.64700
Ni544      Ni  0.63045169  0.59667071  0.10282225     1.27400
Ni545      Ni  0.62383660  0.61842944  0.18066308     1.26100
H546        H  0.64601554  0.64503734  0.17370803     0.40500
O547        O  0.61381251  0.67671131  0.65660446    -0.79500
O548        O  0.61696281  0.59018814  0.68697884    -0.64200
O549        O  0.63138225  0.64141088  0.67115427    -1.10800
C550        C  0.62633835  0.62439781  0.54744656     1.07400
O551        O  0.63796847  0.57933924  0.64445258    -0.77400
O552        O  0.66079624  0.60473751  0.60747933    -0.65000
Ni553      Ni  0.61782534  0.66093516  0.69796606     1.34900
C554        C  0.66753392  0.62133452  0.60902709     0.86100
O555        O  0.62750812  0.61773772  0.73128661    -0.77900
O556        O  0.62079833  0.64795553  0.74290390    -0.88200
C557        C  0.62669655  0.57686579  0.67224579     0.85700
O558        O  0.59106979  0.65156282  0.69283681    -0.66400
O559        O  0.63082267  0.60800378  0.55767349    -0.85700
C560        C  0.58421733  0.63506963  0.69016399     0.86500
C561        C  0.62485426  0.63144337  0.75288015     1.08100
H562        H  0.60625628  0.61345655  0.62388370     0.39900
O563        O  0.62043945  0.61477928  0.62901127    -1.08400
O564        O  0.65638372  0.63568603  0.61274551    -0.65000
Ni565      Ni  0.62783590  0.64028565  0.61985502     1.26300
O566        O  0.59525693  0.62066101  0.68649577    -0.65200
O567        O  0.62379659  0.63827142  0.56879011    -0.77500
C568        C  0.62514107  0.67949360  0.62910244     0.85900
O569        O  0.63445678  0.66622774  0.61314543    -0.64700
Ni570      Ni  0.63403637  0.59513641  0.60274692     1.27400
Ni571      Ni  0.62379572  0.61594389  0.68021178     1.26100
H572        H  0.64559404  0.64265656  0.67611809     0.40500
O573        O  0.61014037  0.33286764  0.29066332    -0.79500
O574        O  0.61010663  0.42093170  0.26145125    -0.64200
O575        O  0.62406021  0.36987837  0.27876516    -1.10800
C576        C  0.61995483  0.38648731  0.40187950     1.07400
O577        O  0.62695732  0.43366874  0.30707656    -0.77400
O578        O  0.65254691  0.40677176  0.33075515    -0.65000
Ni579      Ni  0.61008871  0.35074317  0.25196401     1.34900
C580        C  0.65896979  0.39013702  0.33270165     0.86100
O581        O  0.62234462  0.39327611  0.21862348    -0.77900
O582        O  0.60920808  0.36506012  0.20802110    -0.88200
C583        C  0.61763417  0.43497113  0.27745144     0.85700
O584        O  0.58413604  0.35918646  0.26748109    -0.66400
O585        O  0.62762408  0.40172710  0.39061136    -0.85700
C586        C  0.57724238  0.37568962  0.26726259     0.86500
C587        C  0.61668555  0.38044187  0.19726880     1.08100
H588        H  0.59793434  0.39867540  0.32596731     0.39900
O589        O  0.61213694  0.39691938  0.32064320    -1.08400
O590        O  0.64747996  0.37599918  0.33698111    -0.65000
Ni591      Ni  0.61897649  0.37140080  0.33010819     1.26300
O592        O  0.58827870  0.39019579  0.26328800    -0.65200
O593        O  0.61353931  0.37374513  0.38091725    -0.77500
C594        C  0.61853902  0.33160416  0.32112179     0.85900
O595        O  0.62521244  0.34565963  0.33831801    -0.64700
Ni596      Ni  0.62683538  0.41594179  0.34639820     1.27400
Ni597      Ni  0.61684446  0.39532995  0.26939394     1.26100
H598        H  0.63833675  0.36840611  0.27378954     0.40500
O599        O  0.60691187  0.33421606  0.79896933    -0.79500
O600        O  0.61187691  0.42012140  0.76575096    -0.64200
O601        O  0.62504034  0.36845922  0.77750743    -1.10800
C602        C  0.62859390  0.38624540  0.90144234     1.07400
O603        O  0.63735770  0.42926519  0.79975768    -0.77400
O604        O  0.66055461  0.40415556  0.83466235    -0.65000
Ni605      Ni  0.60915596  0.34913287  0.75561545     1.34900
C606        C  0.66653938  0.38752079  0.82938884     0.86100
O607        O  0.61729337  0.39192599  0.71881389    -0.77900
O608        O  0.61043383  0.36147414  0.70944541    -0.88200
C609        C  0.62397096  0.43269938  0.77648793     0.85700
O610        O  0.58325643  0.35945975  0.76675827    -0.66400
O611        O  0.63226624  0.40271695  0.89007722    -0.85700
C612        C  0.57719134  0.37598455  0.77280329     0.86500
C613        C  0.61401280  0.37796225  0.69818726     1.08100
H614        H  0.60506960  0.39698858  0.83160409     0.39900
O615        O  0.61863059  0.39537396  0.82205612    -1.08400
O616        O  0.65467321  0.37356992  0.82683555    -0.65000
Ni617      Ni  0.62573642  0.36979523  0.82922205     1.26300
O618        O  0.58884107  0.39014773  0.77394542    -0.65200
O619        O  0.62577213  0.37211142  0.88094034    -0.77500
C620        C  0.62046550  0.33084973  0.82188292     0.85900
O621        O  0.63174209  0.34371922  0.83409830    -0.64700
Ni622      Ni  0.63445129  0.41475124  0.84367233     1.27400
Ni623      Ni  0.61774605  0.39405345  0.77049553     1.26100
H624        H  0.63864117  0.36690544  0.76810347     0.40500
O625        O  0.17715644  0.61221666  0.05866243    -0.79500
O626        O  0.08664718  0.61837135  0.02029606    -0.64200
O627        O  0.14205834  0.62995873  0.03450360    -1.10800
C628        C  0.12011003  0.63576284  0.15780285     1.07400
O629        O  0.07751988  0.64331607  0.05244421    -0.77400
O630        O  0.10358836  0.66487004  0.09008237    -0.65000
Ni631      Ni  0.16303474  0.61485305  0.01358749     1.34900
C632        C  0.12174123  0.67003948  0.08488487     0.86100
O633        O  0.11811294  0.62237660  0.97429895    -0.77900
O634        O  0.15136854  0.61692460  0.96624676    -0.88200
C635        C  0.07340837  0.63006781  0.03063755     0.85700
O636        O  0.15096232  0.59072713  0.02059461    -0.66400
O637        O  0.10264424  0.63915679  0.14544991    -0.85700
C638        C  0.13290943  0.58529577  0.02601713     0.86500
C639        C  0.13376243  0.61998357  0.95419103     1.08100
H640        H  0.10970266  0.61297805  0.08732881     0.39900
O641        O  0.11200906  0.62532637  0.07766952    -1.08400
O642        O  0.13644381  0.65863635  0.08272203    -0.65000
Ni643      Ni  0.13943072  0.63168535  0.08614962     1.26300
O644        O  0.11805129  0.59650351  0.02931999    -0.65200
O645        O  0.13576085  0.63280911  0.13793629    -0.77500
C646        C  0.18074543  0.62492685  0.08198359     0.85900
O647        O  0.16740839  0.63653919  0.09224780    -0.64700
Ni648      Ni  0.09122562  0.64092663  0.09788313     1.27400
Ni649      Ni  0.11463757  0.62344630  0.02607500     1.26100
H650        H  0.14416064  0.64236736  0.02500181     0.40500
O651        O  0.17944295  0.61524067  0.55278434    -0.79500
O652        O  0.08755367  0.61879715  0.52394978    -0.64200
O653        O  0.14289547  0.63209947  0.53319138    -1.10800
C654        C  0.12485219  0.63554637  0.65868831     1.07400
O655        O  0.07820074  0.64268927  0.55888424    -0.77400
O656        O  0.10469844  0.66470509  0.59472276    -0.65000
Ni657      Ni  0.16375895  0.61793022  0.50946339     1.34900
C658        C  0.12244777  0.67065672  0.58824378     0.86100
O659        O  0.11735083  0.62456336  0.47515986    -0.77900
O660        O  0.15049620  0.62010345  0.46358309    -0.88200
C661        C  0.07410533  0.62975987  0.53636626     0.85700
O662        O  0.15289003  0.59332228  0.51654402    -0.66400
O663        O  0.10685699  0.63833929  0.64833879    -0.85700
C664        C  0.13521425  0.58722760  0.52329169     0.86500
C665        C  0.13243035  0.62277825  0.45344809     1.08100
H666        H  0.11304607  0.61320945  0.58810087     0.39900
O667        O  0.11447418  0.62577802  0.57901821    -1.08400
O668        O  0.13757397  0.65988895  0.58366214    -0.65000
Ni669      Ni  0.14187381  0.63303834  0.58502535     1.26300
O670        O  0.12004006  0.59790597  0.52844012    -0.65200
O671        O  0.13994537  0.63335153  0.63712030    -0.77500
C672        C  0.18313702  0.62759024  0.57676048     0.85900
O673        O  0.16977604  0.63881285  0.58846436    -0.64700
Ni674      Ni  0.09369558  0.64022070  0.60237501     1.27400
Ni675      Ni  0.11549264  0.62476482  0.52719897     1.26100
H676        H  0.14422560  0.64469424  0.52420383     0.40500
O677        O  0.14085444  0.43129785  0.45444557    -0.79500
O678        O  0.13560051  0.34457468  0.42208203    -0.64200
O679        O  0.12237977  0.39605803  0.44053690    -1.10800
C680        C  0.12411169  0.38144086  0.56315043     1.07400
O681        O  0.12180972  0.33211311  0.47191532    -0.77400
O682        O  0.09434681  0.35937623  0.48992391    -0.65000
Ni683      Ni  0.13506952  0.41560089  0.41295254     1.34900
C684        C  0.08738987  0.37587068  0.49211121     0.86100
O685        O  0.12399386  0.37232915  0.37977202    -0.77900
O686        O  0.12989708  0.40267896  0.36812431    -0.88200
C687        C  0.12993887  0.33055832  0.44065181     0.85700
O688        O  0.16187040  0.40601035  0.41423215    -0.66400
O689        O  0.11571830  0.36661134  0.55170501    -0.85700
C690        C  0.16862767  0.38952486  0.41671732     0.86500
C691        C  0.12535254  0.38612290  0.35827820     1.08100
H692        H  0.14836557  0.36794714  0.48629264     0.39900
O693        O  0.13415201  0.36958812  0.48188828    -1.08400
O694        O  0.09828439  0.39019570  0.49885656    -0.65000
Ni695      Ni  0.12696328  0.39523102  0.49139790     1.26300
O696        O  0.15760339  0.37518910  0.42187608    -0.65200
O697        O  0.13190647  0.39351724  0.54213029    -0.77500
C698        C  0.13000771  0.43443414  0.48255558     0.85900
O699        O  0.12058693  0.42130069  0.49866609    -0.64700
Ni700      Ni  0.11923435  0.35112294  0.50901601     1.27400
Ni701      Ni  0.12928465  0.37051360  0.43055597     1.26100
H702        H  0.10808579  0.39731084  0.43651270     0.40500
O703        O  0.13688207  0.42958357  0.95946438    -0.79500
O704        O  0.12804597  0.34345234  0.92362911    -0.64200
O705        O  0.11742366  0.39538543  0.94098961    -1.10800
C706        C  0.11153440  0.37999688  0.06323251     1.07400
O707        O  0.11134069  0.33127632  0.97088654    -0.77400
O708        O  0.08455634  0.35970071  0.98406668    -0.65000
Ni709      Ni  0.13331951  0.41412767  0.91679774     1.34900
C710        C  0.07841663  0.37649413  0.98467270     0.86100
O711        O  0.12062605  0.37188086  0.88040198    -0.77900
O712        O  0.13087173  0.40143820  0.87084298    -0.88200
C713        C  0.12080979  0.32961570  0.94083240     0.85700
O714        O  0.15895720  0.40305977  0.92455309    -0.66400
O715        O  0.10258942  0.36582699  0.05009130    -0.85700
C716        C  0.16432419  0.38611131  0.92591863     0.86500
C717        C  0.12515431  0.38542835  0.85965646     1.08100
H718        H  0.13883638  0.36576291  0.99051038     0.39900
O719        O  0.12506896  0.36810246  0.98369034    -1.08400
O720        O  0.08955271  0.39029960  0.99396139    -0.65000
Ni721      Ni  0.11880279  0.39400405  0.99239518     1.26300
O722        O  0.15203924  0.37243976  0.92757617    -0.65200
O723        O  0.12081679  0.39182094  0.04369032    -0.77500
C724        C  0.12453917  0.43302311  0.98537690     0.85900
O725        O  0.11349518  0.42026532  0.99914573    -0.64700
Ni726      Ni  0.10765956  0.35029927  0.00775177     1.27400
Ni727      Ni  0.12309260  0.36955058  0.93173680     1.26100
H728        H  0.10363605  0.39759128  0.93416764     0.40500
O729        O  0.36153217  0.42762235  0.34810843    -0.79500
O730        O  0.36652909  0.33991979  0.37728158    -0.64200
O731        O  0.37873769  0.39159695  0.35974064    -1.10800
C732        C  0.37204505  0.37627695  0.23696257     1.07400
O733        O  0.38164439  0.32817457  0.32775768    -0.77400
O734        O  0.40647598  0.35525658  0.30162088    -0.65000
Ni735      Ni  0.36516709  0.41064809  0.38801025     1.34900
C736        C  0.41288435  0.37194192  0.30001904     0.86100
O737        O  0.37849675  0.36784524  0.41968889    -0.77900
O738        O  0.36783075  0.39692122  0.43226851    -0.88200
C739        C  0.37330486  0.32625378  0.35867321     0.85700
O740        O  0.33871046  0.40093674  0.38120563    -0.66400
O741        O  0.37995779  0.36094827  0.24617596    -0.85700
C742        C  0.33245386  0.38418178  0.38221333     0.86500
C743        C  0.37411706  0.38096561  0.44179326     1.08100
H744        H  0.35205570  0.36292422  0.31553894     0.39900
O745        O  0.36637340  0.36472440  0.31876295    -1.08400
O746        O  0.40131388  0.38608596  0.29859905    -0.65000
Ni747      Ni  0.37290007  0.39037645  0.30930177     1.26300
O748        O  0.34399712  0.37001197  0.38043555    -0.65200
O749        O  0.36629132  0.38867285  0.25943856    -0.77500
C750        C  0.37095183  0.42962695  0.31813789     0.85900
O751        O  0.37913215  0.41607511  0.30141472    -0.64700
Ni752      Ni  0.38036349  0.34625050  0.28965168     1.27400
Ni753      Ni  0.37231936  0.36589808  0.36944543     1.26100
H754        H  0.39306387  0.39335307  0.36291190     0.40500
O755        O  0.35742882  0.42661331  0.84405116    -0.79500
O756        O  0.35913689  0.34019112  0.87521018    -0.64200
O757        O  0.37434191  0.39142516  0.86178237    -1.10800
C758        C  0.37333487  0.37438868  0.73722329     1.07400
O759        O  0.38244644  0.33042683  0.83590124    -0.77400
O760        O  0.40568468  0.35464916  0.79858300    -0.65000
Ni761      Ni  0.36004769  0.41113396  0.88645019     1.34900
C762        C  0.41264981  0.37096098  0.80351261     0.86100
O763        O  0.36811384  0.36787587  0.92131165    -0.77900
O764        O  0.36182119  0.39834675  0.93188403    -0.88200
C765        C  0.36942881  0.32715977  0.86066063     0.85700
O766        O  0.33343261  0.40170157  0.87937551    -0.66400
O767        O  0.37626568  0.35772478  0.74766451    -0.85700
C768        C  0.32664650  0.38520136  0.87612300     0.86500
C769        C  0.36532309  0.38179413  0.94243691     1.08100
H770        H  0.35092515  0.36399025  0.81137284     0.39900
O771        O  0.36490061  0.36502377  0.81816757    -1.08400
O772        O  0.40170709  0.38538219  0.80779166    -0.65000
Ni773      Ni  0.37311058  0.39033067  0.81013796     1.26300
O774        O  0.33772124  0.37080765  0.87294341    -0.65200
O775        O  0.37149429  0.38841219  0.75845362    -0.77500
C776        C  0.37001547  0.42930230  0.81821802     0.85900
O777        O  0.38035701  0.41606819  0.80453143    -0.64700
Ni778      Ni  0.37892213  0.34526652  0.79318021     1.27400
Ni779      Ni  0.36630936  0.36601773  0.86978666     1.26100
H780        H  0.38827286  0.39257741  0.86878201     0.40500
O781        O  0.36716965  0.57682601  0.19837672    -0.79500
O782        O  0.37042625  0.66280158  0.16165469    -0.64200
O783        O  0.38431831  0.61205054  0.18004151    -1.10800
C784        C  0.38568725  0.62908518  0.30216576     1.07400
O785        O  0.38561746  0.67657631  0.20820997    -0.77400
O786        O  0.41364694  0.65007450  0.22444807    -0.65000
Ni787      Ni  0.37015821  0.59222406  0.15587665     1.34900
C788        C  0.42076099  0.63365473  0.22584532     0.86100
O789        O  0.38107447  0.63462283  0.11919295    -0.77900
O790        O  0.37217569  0.60469421  0.10990328    -0.88200
C791        C  0.37656385  0.67722118  0.17823634     0.85700
O792        O  0.34364014  0.60169642  0.16436873    -0.66400
O793        O  0.39337228  0.64398438  0.28935000    -0.85700
C794        C  0.33719201  0.61834231  0.16487645     0.86500
C795        C  0.37728052  0.62081285  0.09858561     1.08100
H796        H  0.35951472  0.64093920  0.22852199     0.39900
O797        O  0.37360776  0.63934584  0.22206482    -1.08400
O798        O  0.41010272  0.61934276  0.23398533    -0.65000
Ni799      Ni  0.38131927  0.61403222  0.23137089     1.26300
O800        O  0.34858063  0.63265676  0.16568936    -0.65200
O801        O  0.37775901  0.61659720  0.28250219    -0.77500
C802        C  0.37852951  0.57487467  0.22538445     0.85900
O803        O  0.38827167  0.58843945  0.23884751    -0.64700
Ni804      Ni  0.38899068  0.65849010  0.24615578     1.27400
Ni805      Ni  0.37711334  0.63733100  0.17030056     1.26100
H806        H  0.39841846  0.61055426  0.17358178     0.40500
O807        O  0.36670700  0.57724498  0.69794225    -0.79500
O808        O  0.37376194  0.66333592  0.66036125    -0.64200
O809        O  0.38528674  0.61211240  0.68082987    -1.10800
C810        C  0.38256921  0.62928571  0.80271104     1.07400
O811        O  0.38588027  0.67695635  0.71003224    -0.77400
O812        O  0.41328230  0.65009282  0.72764657    -0.65000
Ni813      Ni  0.37123282  0.59256927  0.65565404     1.34900
C814        C  0.42018934  0.63361644  0.72972321     0.86100
O815        O  0.38485835  0.63450412  0.61930566    -0.77900
O816        O  0.37478160  0.60490122  0.60977059    -0.88200
C817        C  0.37872249  0.67772633  0.67843541     0.85700
O818        O  0.34494631  0.60282044  0.66234665    -0.66400
O819        O  0.39146739  0.64376236  0.79067426    -0.85700
C820        C  0.33904226  0.61962650  0.66168514     0.86500
C821        C  0.38096837  0.62073044  0.59857075     1.08100
H822        H  0.35938263  0.64148976  0.72603495     0.39900
O823        O  0.37364711  0.63970754  0.72135836    -1.08400
O824        O  0.40922517  0.61940336  0.73740434    -0.65000
Ni825      Ni  0.38051917  0.61428834  0.73169119     1.26300
O826        O  0.35082663  0.63365352  0.66228959    -0.65200
O827        O  0.37498529  0.61699950  0.78222844    -0.77500
C828        C  0.37730564  0.57510489  0.72587954     0.85900
O829        O  0.38681672  0.58858653  0.74020799    -0.64700
Ni830      Ni  0.38825739  0.65858224  0.74759976     1.27400
Ni831      Ni  0.37920093  0.63757851  0.67002223     1.26100
H832        H  0.39950590  0.61018845  0.67594867     0.40500
C833        C  0.37996851  0.62522308  0.91273918     0.18400
C834        C  0.36415098  0.63387186  0.93215516    -0.10700
C835        C  0.36388183  0.63376056  0.97004275    -0.11500
C836        C  0.37944933  0.62503294  0.98865583     0.20000
C837        C  0.39522083  0.61635498  0.96923165    -0.13600
C838        C  0.39548861  0.61646359  0.93137913    -0.11900
C839        C  0.37906800  0.62459641  0.02761093     0.01000
C840        C  0.37855712  0.62342265  0.06015302    -0.31900
C841        C  0.38056483  0.62570759  0.87376910     0.02300
C842        C  0.38142052  0.62676514  0.84120709    -0.33500
H843        H  0.35209169  0.64073073  0.91803169     0.13400
H844        H  0.35156541  0.64044731  0.98478630     0.13200
H845        H  0.40728842  0.60949940  0.98333975     0.13100
H846        H  0.40781370  0.60977643  0.91666252     0.12100
C847        C  0.38511017  0.62388410  0.48838722     0.18400
C848        C  0.40128354  0.63240707  0.46984794    -0.10700
C849        C  0.40184892  0.63259783  0.43193488    -0.11500
C850        C  0.38625321  0.62424537  0.41231452     0.20000
C851        C  0.37014764  0.61561391  0.43086771    -0.13600
C852        C  0.36958207  0.61542466  0.46876752    -0.11900
C853        C  0.38645617  0.62501706  0.37326633     0.01000
C854        C  0.38625298  0.62635534  0.34068927    -0.31900
C855        C  0.38442467  0.62374359  0.52745324     0.02300
C856        C  0.38332412  0.62299280  0.56008128    -0.33500
H857        H  0.41339568  0.63896003  0.48467875     0.13400
H858        H  0.41436019  0.63936038  0.41794316     0.13200
H859        H  0.35797296  0.60915084  0.41605427     0.13100
H860        H  0.35700970  0.60875470  0.48275900     0.12100
C861        C  0.37665286  0.52122837  0.76260476     0.18400
C862        C  0.35788418  0.51269600  0.76946464    -0.10700
C863        C  0.35680870  0.49382862  0.77930262    -0.11500
C864        C  0.37448678  0.48326721  0.78229487     0.20000
C865        C  0.39325793  0.49175594  0.77521912    -0.13600
C866        C  0.39433443  0.51063756  0.76537101    -0.11900
C867        C  0.37333520  0.46388858  0.79327896     0.01000
C868        C  0.37203008  0.44790365  0.80365522    -0.31900
C869        C  0.37767065  0.54069666  0.75211389     0.02300
C870        C  0.37793649  0.55672397  0.74174270    -0.33500
H871        H  0.34407498  0.52063312  0.76724356     0.13400
H872        H  0.34219232  0.48749813  0.78469345     0.13200
H873        H  0.40705759  0.48380488  0.77742809     0.13100
H874        H  0.40894445  0.51697211  0.75995693     0.12100
C875        C  0.37485536  0.37637030  0.55145064     0.18400
C876        C  0.35611480  0.37641728  0.56972890    -0.10700
C877        C  0.35522193  0.37700250  0.60759742    -0.11500
C878        C  0.37306792  0.37761054  0.62734790     0.20000
C879        C  0.39179341  0.37742965  0.60907222    -0.13600
C880        C  0.39268637  0.37684389  0.57122509    -0.11900
C881        C  0.37226687  0.37798825  0.66632220     0.01000
C882        C  0.37230733  0.37726649  0.69891949    -0.31900
C883        C  0.37574218  0.37652719  0.51246761     0.02300
C884        C  0.37574198  0.37774552  0.47992129    -0.33500
H885        H  0.34222117  0.37611876  0.55471710     0.13400
H886        H  0.34066050  0.37701727  0.62143639     0.13200
H887        H  0.40568927  0.37777662  0.62407447     0.13100
H888        H  0.40725154  0.37687703  0.55740223     0.12100
C889        C  0.36679372  0.37856057  0.05211709     0.18400
C890        C  0.38509004  0.38175258  0.06954702    -0.10700
C891        C  0.38556412  0.38266706  0.10731011    -0.11500
C892        C  0.36773325  0.38044953  0.12780532     0.20000
C893        C  0.34940434  0.37730582  0.11039419    -0.13600
C894        C  0.34892882  0.37639631  0.07258457    -0.11900
C895        C  0.36846748  0.38061629  0.16666449     0.01000
C896        C  0.36976987  0.37952831  0.19905236    -0.31900
C897        C  0.36632902  0.37810935  0.01324341     0.02300
C898        C  0.36603120  0.37891110  0.98070906    -0.33500
H899        H  0.39896455  0.38354617  0.05395490     0.13400
H900        H  0.39982909  0.38499871  0.12052259     0.13200
H901        H  0.33554753  0.37546831  0.12601487     0.13100
H902        H  0.33468053  0.37402516  0.05934259     0.12100
C903        C  0.37808984  0.52121076  0.26216263     0.18400
C904        C  0.39557703  0.51051938  0.26639313    -0.10700
C905        C  0.39406020  0.49160656  0.27573318    -0.11500
C906        C  0.37505067  0.48323195  0.28084224     0.20000
C907        C  0.35757902  0.49390014  0.27637879    -0.13600
C908        C  0.35909442  0.51279535  0.26705362    -0.11900
C909        C  0.37346668  0.46392091  0.29183401     0.01000
C910        C  0.37219801  0.44805326  0.30273030    -0.31900
C911        C  0.37949523  0.54064022  0.25188571     0.02300
C912        C  0.37969238  0.55661321  0.24139148    -0.33500
H913        H  0.41035652  0.51679082  0.26249331     0.13400
H914        H  0.40769563  0.48355074  0.27916280     0.13200
H915        H  0.34279226  0.48764474  0.28030432     0.13100
H916        H  0.34544960  0.52084485  0.26366553     0.12100
C917        C  0.22468341  0.37953357  0.90957440     0.18400
C918        C  0.23898241  0.38145136  0.93680483    -0.10700
C919        C  0.25957895  0.38167830  0.92781875    -0.11500
C920        C  0.26598644  0.38002354  0.89156772     0.20000
C921        C  0.25170155  0.37793130  0.86433945    -0.13600
C922        C  0.23108946  0.37769576  0.87333387    -0.11900
C923        C  0.28719196  0.38106606  0.88255616     0.01000
C924        C  0.30516543  0.38263259  0.87772235    -0.31900
C925        C  0.20345286  0.38039502  0.91846199     0.02300
C926        C  0.18555471  0.38228043  0.92372029    -0.33500
H927        H  0.23421197  0.38301906  0.96486666     0.13400
H928        H  0.27049913  0.38337471  0.94907819     0.13200
H929        H  0.25647318  0.37671212  0.83621809     0.13100
H930        H  0.22015076  0.37633946  0.85202401     0.12100
C931        C  0.12383082  0.38418113  0.67348902     0.18400
C932        C  0.14193774  0.38542756  0.69238616    -0.10700
C933        C  0.14177459  0.38443866  0.73021444    -0.11500
C934        C  0.12350967  0.38214135  0.74944912     0.20000
C935        C  0.10539226  0.38076995  0.73057232    -0.13600
C936        C  0.10555574  0.38175512  0.69270063    -0.11900
C937        C  0.12339058  0.38186285  0.78851272     0.01000
C938        C  0.12386887  0.38272528  0.82115193    -0.31900
C939        C  0.12409959  0.38491666  0.63442512     0.02300
C940        C  0.12433032  0.38441063  0.60171306    -0.33500
H941        H  0.15617342  0.38718161  0.67788690     0.13400
H942        H  0.15587612  0.38557291  0.74447114     0.13200
H943        H  0.09116306  0.37904682  0.74510787     0.13100
H944        H  0.09145844  0.38064820  0.67842736     0.12100
C945        C  0.11328949  0.38292964  0.17358567     0.18400
C946        C  0.13239473  0.38154475  0.18900111    -0.10700
C947        C  0.13428697  0.38104771  0.22664978    -0.11500
C948        C  0.11708368  0.38188787  0.24924830     0.20000
C949        C  0.09794255  0.38322500  0.23387881    -0.13600
C950        C  0.09604582  0.38371651  0.19615621    -0.11900
C951        C  0.11922527  0.38198755  0.28809821     0.01000
C952        C  0.12168913  0.38307579  0.32038827    -0.31900
C953        C  0.11153602  0.38316377  0.13465661     0.02300
C954        C  0.11106310  0.38248993  0.10196820    -0.33500
H955        H  0.14583947  0.38085578  0.17190360     0.13400
H956        H  0.14917341  0.38009475  0.23813609     0.13200
H957        H  0.08452180  0.38396753  0.25102412     0.13100
H958        H  0.08117664  0.38471833  0.18462645     0.12100
C959        C  0.27147631  0.38022301  0.39551238     0.18400
C960        C  0.25927528  0.38329803  0.36560358    -0.10700
C961        C  0.23833896  0.38462755  0.37018998    -0.11500
C962        C  0.22949304  0.38289829  0.40473639     0.20000
C963        C  0.24165964  0.37961181  0.43463872    -0.13600
C964        C  0.26262511  0.37828835  0.43004886    -0.11900
C965        C  0.20800477  0.38490235  0.40952756     0.01000
C966        C  0.19002056  0.38690184  0.41313422    -0.31900
C967        C  0.29308698  0.38004610  0.39081985     0.02300
C968        C  0.31112533  0.38119814  0.38645594    -0.33500
H969        H  0.26597209  0.38492752  0.33883250     0.13400
H970        H  0.22908208  0.38720681  0.34689373     0.13200
H971        H  0.23496966  0.37828658  0.46148108     0.13100
H972        H  0.27192491  0.37601899  0.45341330     0.12100
C973        C  0.24005860  0.62790810  0.61616391     0.18400
C974        C  0.24482378  0.63456570  0.65075879    -0.10700
C975        C  0.26472810  0.63371155  0.66266229    -0.11500
C976        C  0.27984814  0.62619508  0.63995453     0.20000
C977        C  0.27506372  0.61964551  0.60534033    -0.13600
C978        C  0.25521947  0.62049572  0.59347354    -0.11900
C979        C  0.30030094  0.62491725  0.65181978     0.01000
C980        C  0.31788177  0.62292269  0.65836222    -0.31900
C981        C  0.21964076  0.62841193  0.60383685     0.02300
C982        C  0.20281802  0.62825745  0.59207457    -0.33500
H983        H  0.23317780  0.64031605  0.66849903     0.13400
H984        H  0.26829930  0.63880967  0.68948403     0.13200
H985        H  0.28666413  0.61380735  0.58759738     0.13100
H986        H  0.25168050  0.61530441  0.56669451     0.12100
C987        C  0.12959040  0.49036539  0.50918492     0.18400
C988        C  0.11887286  0.49899427  0.53789074    -0.10700
C989        C  0.11935579  0.51855762  0.54234534    -0.11500
C990        C  0.13055173  0.52977606  0.51815115     0.20000
C991        C  0.14130342  0.52111362  0.48956703    -0.13600
C992        C  0.14082434  0.50159822  0.48512705    -0.11900
C993        C  0.13109022  0.55008167  0.52233610     0.01000
C994        C  0.13233409  0.56705446  0.52406939    -0.31900
C995        C  0.12893091  0.47014080  0.50374847     0.02300
C996        C  0.12898273  0.45352980  0.49629102    -0.33500
H997        H  0.11007989  0.49062222  0.55675575     0.13400
H998        H  0.11095209  0.52492454  0.56460607     0.13200
H999        H  0.15004732  0.52946304  0.47058287     0.13100
H1000       H  0.14918245  0.49526698  0.46276446     0.12100
C1001       C  0.13015916  0.62569232  0.84416499     0.18400
C1002       C  0.14065311  0.64065085  0.82812089    -0.10700
C1003       C  0.14035581  0.64314123  0.79050976    -0.11500
C1004       C  0.12957562  0.63067550  0.76859049     0.20000
C1005       C  0.11899787  0.61578593  0.78466924    -0.13600
C1006       C  0.11929550  0.61329670  0.82225694    -0.11900
C1007       C  0.12922197  0.63309354  0.72971531     0.01000
C1008       C  0.12800628  0.63452081  0.69718413    -0.31900
C1009       C  0.13068231  0.62303646  0.88296705     0.02300
C1010       C  0.13165045  0.62123765  0.91545903    -0.33500
H1011       H  0.14910343  0.65036143  0.84467311     0.13400
H1012       H  0.14855126  0.65474661  0.77854846     0.13200
H1013       H  0.11054514  0.60607060  0.76813024     0.13100
H1014       H  0.11109811  0.60168805  0.83420303     0.12100
C1015       C  0.12405574  0.63168743  0.26812409     0.18400
C1016       C  0.11912463  0.64672416  0.29118007    -0.10700
C1017       C  0.12005708  0.64472013  0.32885091    -0.11500
C1018       C  0.12589349  0.62765237  0.34380819     0.20000
C1019       C  0.13077952  0.61261628  0.32074810    -0.13600
C1020       C  0.12984876  0.61461907  0.28310218    -0.11900
C1021       C  0.12725762  0.62565847  0.38266486     0.01000
C1022       C  0.12908050  0.62413214  0.41506107    -0.31900
C1023       C  0.12309672  0.63368307  0.22920768    -0.00900
C1024       C  0.12206634  0.63492629  0.19661787    -0.33500
H1025       H  0.11459555  0.65999301  0.28005229     0.13400
H1026       H  0.11629203  0.65648741  0.34628686     0.13200
H1027       H  0.13537157  0.59936201  0.33185838     0.13100
H1028       H  0.13367887  0.60286408  0.26567883     0.12100
C1029       C  0.27729202  0.62462345  0.14685430     0.18400
C1030       C  0.27173366  0.63768505  0.12081553    -0.10700
C1031       C  0.25177990  0.63840986  0.10918857    -0.11500
C1032       C  0.23730675  0.62606078  0.12353019     0.20000
C1033       C  0.24281142  0.61315917  0.14987711    -0.13600
C1034       C  0.26276423  0.61243211  0.16149885    -0.11900
C1035       C  0.21703238  0.62611169  0.11021415     0.01000
C1036       C  0.20029187  0.62569274  0.09798802    -0.31900
C1037       C  0.29809720  0.62302551  0.15689879     0.02300
C1038       C  0.31583495  0.62114255  0.16254566    -0.33500
H1039       H  0.28288005  0.64707940  0.10909426     0.13400
H1040       H  0.24771278  0.64838217  0.08867237     0.13200
H1041       H  0.23176152  0.60348838  0.16101194     0.13100
H1042       H  0.26692728  0.60218068  0.18142458     0.12100
C1043       C  0.12604230  0.52803816  0.02284224     0.18400
C1044       C  0.10893379  0.51951855  0.00793389    -0.10700
C1045       C  0.10801031  0.50000807  0.00340756    -0.11500
C1046       C  0.12417381  0.48870279  0.01372271     0.20000
C1047       C  0.14123408  0.49720449  0.02884551    -0.13600
C1048       C  0.14215734  0.51671786  0.03337709    -0.11900
C1049       C  0.12361821  0.46858419  0.00723796     0.01000
C1050       C  0.12358965  0.45204745  0.99932127    -0.31900
C1051       C  0.12738029  0.54833395  0.02612681     0.02300
C1052       C  0.12923264  0.56525913  0.02735144    -0.33500
H1053       H  0.09637884  0.52797406  0.99941878     0.13400
H1054       H  0.09476788  0.49376250  0.99144042     0.13200
H1055       H  0.15394070  0.48877407  0.03674730     0.13100
H1056       H  0.15555355  0.52299133  0.04473785     0.12100
C1057       C  0.47398654  0.37618811  0.79755547     0.18400
C1058       C  0.48656075  0.36513035  0.81861001    -0.10700
C1059       C  0.50755703  0.36627452  0.81411190    -0.11500
C1060       C  0.51611610  0.37847996  0.78853898     0.20000
C1061       C  0.50353006  0.38954262  0.76749703    -0.13600
C1062       C  0.48253046  0.38839959  0.77200138    -0.11900
C1063       C  0.53774937  0.37917344  0.78323416     0.01000
C1064       C  0.55584256  0.37859585  0.77862218    -0.31900
C1065       C  0.45234720  0.37471286  0.80149500     0.02300
C1066       C  0.43420456  0.37323266  0.80340403    -0.33500
H1067       H  0.48014305  0.35555757  0.83830480     0.13400
H1068       H  0.51710757  0.35755514  0.83038009     0.13200
H1069       H  0.50993422  0.39893900  0.74747414     0.13100
H1070       H  0.47296212  0.39694017  0.75541804     0.12100
C1071       C  0.47407212  0.37757129  0.29180362     0.18400
C1072       C  0.48645631  0.36652441  0.31323221    -0.10700
C1073       C  0.50743291  0.36703305  0.30817834    -0.11500
C1074       C  0.51614682  0.37858668  0.28166207     0.20000
C1075       C  0.50377097  0.38969070  0.26032489    -0.13600
C1076       C  0.48278390  0.38918218  0.26538258    -0.11900
C1077       C  0.53772605  0.37870924  0.27596611     0.01000
C1078       C  0.55580286  0.37795860  0.27161301    -0.31900
C1079       C  0.45243762  0.37650222  0.29609089     0.02300
C1080       C  0.43433318  0.37488950  0.29863106    -0.33500
H1081       H  0.47989427  0.35741504  0.33360184     0.13400
H1082       H  0.51683883  0.35832883  0.32474597     0.13200
H1083       H  0.51032423  0.39862054  0.23965135     0.13100
H1084       H  0.47335538  0.39770640  0.24851667     0.12100
C1085       C  0.61736062  0.38310531  0.51212729     0.18400
C1086       C  0.63529621  0.38244074  0.53163201    -0.10700
C1087       C  0.63461802  0.38238806  0.56953805    -0.11500
C1088       C  0.61600194  0.38305260  0.58816765     0.20000
C1089       C  0.59808979  0.38394748  0.56867200    -0.13600
C1090       C  0.59876734  0.38399896  0.53077904    -0.11900
C1091       C  0.61522901  0.38223469  0.62716581     0.01000
C1092       C  0.61456953  0.38078451  0.65970475    -0.31900
C1093       C  0.61803528  0.38306542  0.47305804     0.02300
C1094       C  0.61872614  0.38380881  0.44040385    -0.33500
H1095       H  0.64977429  0.38186697  0.51755315     0.13400
H1096       H  0.64857403  0.38168142  0.58428750     0.13200
H1097       H  0.58360762  0.38445466  0.58274693     0.13100
H1098       H  0.58480426  0.38463777  0.51604095     0.12100
C1099       C  0.62425169  0.38265770  0.01141085     0.18400
C1100       C  0.61174027  0.39565924  0.02928723    -0.10700
C1101       C  0.61050547  0.39606718  0.06712854    -0.11500
C1102       C  0.62178601  0.38348833  0.08732881     0.20000
C1103       C  0.63419289  0.37038349  0.06945164    -0.13600
C1104       C  0.63543047  0.36997720  0.03158269    -0.11900
C1105       C  0.62031363  0.38377532  0.12631010     0.01000
C1106       C  0.61875442  0.38313508  0.15888031    -0.31900
C1107       C  0.62594853  0.38270453  0.97247147     0.02300
C1108       C  0.62731320  0.38368676  0.93992941    -0.33500
H1109       H  0.60302905  0.40553760  0.01398341     0.13400
H1110       H  0.60078307  0.40618721  0.08061813     0.13200
H1111       H  0.64290590  0.36051225  0.08476731     0.13100
H1112       H  0.64515638  0.35986720  0.01807097     0.12100
C1113       C  0.52305220  0.63077980  0.70156146     0.18400
C1114       C  0.51474259  0.63557085  0.73552230    -0.10700
C1115       C  0.49381251  0.63524263  0.74118172    -0.11500
C1116       C  0.48106269  0.63010566  0.71292705     0.20000
C1117       C  0.48935719  0.62533705  0.67893029    -0.13600
C1118       C  0.51031041  0.62566543  0.67326450    -0.11900
C1119       C  0.45949581  0.63017671  0.71869565     0.01000
C1120       C  0.44148754  0.63109601  0.72381288    -0.31900
C1121       C  0.54461011  0.63142725  0.69578308     0.02300
C1122       C  0.56270895  0.63262381  0.69226153    -0.33500
H1123       H  0.52443427  0.63962925  0.75756062     0.13400
H1124       H  0.48757245  0.63906837  0.76751035     0.13200
H1125       H  0.47964181  0.62145344  0.65681714     0.13100
H1126       H  0.51655655  0.62201470  0.64685235     0.12100
C1127       C  0.62310353  0.48629028  0.73733071     0.18400
C1128       C  0.61805836  0.49035798  0.70153758    -0.10700
C1129       C  0.61843844  0.50886788  0.68924983    -0.11500
C1130       C  0.62387362  0.52353331  0.71260245     0.20000
C1131       C  0.62885145  0.51947694  0.74843977    -0.13600
C1132       C  0.62847124  0.50096380  0.76072995    -0.11900
C1133       C  0.62461913  0.54262551  0.69961248     0.01000
C1134       C  0.62546551  0.55839911  0.68786419    -0.31900
C1135       C  0.62293259  0.46712620  0.74997242     0.02300
C1136       C  0.62311902  0.45125366  0.76126833    -0.33500
H1137       H  0.61389491  0.47921892  0.68308235     0.13400
H1138       H  0.61457416  0.51172881  0.66147988     0.13200
H1139       H  0.63310884  0.53060827  0.76684190     0.13100
H1140       H  0.63242988  0.49809142  0.78844996     0.12100
C1141       C  0.52345557  0.63239785  0.19591176     0.18400
C1142       C  0.51074635  0.64273998  0.17381635    -0.10700
C1143       C  0.48979587  0.64180252  0.17898929    -0.11500
C1144       C  0.48143969  0.63051477  0.20628062     0.20000
C1145       C  0.49413893  0.61998646  0.22808976    -0.13600
C1146       C  0.51509919  0.62092328  0.22291161    -0.11900
C1147       C  0.45992857  0.63038261  0.21280141     0.01000
C1148       C  0.44197802  0.63127795  0.21865570    -0.31900
C1149       C  0.54504360  0.63407766  0.19174029     0.02300
C1150       C  0.56312405  0.63590545  0.18933934    -0.33500
H1151       H  0.51703514  0.65170377  0.15294143     0.13400
H1152       H  0.48013628  0.65006637  0.16206043     0.13200
H1153       H  0.48786161  0.61127205  0.24936999     0.13100
H1154       H  0.52478228  0.61290948  0.24023781     0.12100
C1155       C  0.62419103  0.62703941  0.86241460     0.18400
C1156       C  0.64136316  0.63091385  0.88271362    -0.10700
C1157       C  0.63992157  0.63177080  0.92046617    -0.11500
C1158       C  0.62129742  0.62881430  0.93810233     0.20000
C1159       C  0.60411239  0.62485057  0.91783525    -0.13600
C1160       C  0.60555484  0.62399869  0.88002688    -0.11900
C1161       C  0.62014366  0.62925756  0.97700078     0.01000
C1162       C  0.62062093  0.62862508  0.00954803    -0.31900
C1163       C  0.62551383  0.62702353  0.82352812     0.02300
C1164       C  0.62591896  0.62824394  0.79102245    -0.33500
H1165       H  0.65581544  0.63338213  0.86936461     0.13400
H1166       H  0.65332251  0.63472702  0.93590861     0.13200
H1167       H  0.58966122  0.62242433  0.93121547     0.13100
H1168       H  0.59215712  0.62108896  0.86454667     0.12100
C1169       C  0.62545402  0.62860066  0.36188433     0.18400
C1170       C  0.60841558  0.62162925  0.38041833    -0.10700
C1171       C  0.60781685  0.62150078  0.41829710    -0.11500
C1172       C  0.62423203  0.62840407  0.43777535     0.20000
C1173       C  0.64131383  0.63524467  0.41922229    -0.13600
C1174       C  0.64191295  0.63537146  0.38137522    -0.11900
C1175       C  0.62381709  0.62812815  0.47673451     0.01000
C1176       C  0.62439156  0.62717532  0.50926546    -0.31900
C1177       C  0.62580676  0.62934799  0.32295776     0.02300
C1178       C  0.62564834  0.63078815  0.29047362    -0.33500
H1179       H  0.59558290  0.61639966  0.36561206     0.13400
H1180       H  0.59458245  0.61606586  0.43235867     0.13200
H1181       H  0.65414065  0.64050269  0.43400984     0.13100
H1182       H  0.65514144  0.64083335  0.36733428     0.12100
C1183       C  0.61634114  0.48802107  0.23608821     0.18400
C1184       C  0.59860707  0.49756220  0.22743055    -0.10700
C1185       C  0.59955624  0.51613127  0.21538222    -0.11500
C1186       C  0.61824358  0.52534881  0.21197189     0.20000
C1187       C  0.63593813  0.51572988  0.22035679    -0.13600
C1188       C  0.63499133  0.49720844  0.23237014    -0.11900
C1189       C  0.61943306  0.54457774  0.19979934     0.01000
C1190       C  0.62116218  0.56045189  0.18881530    -0.31900
C1191       C  0.61558012  0.46897526  0.24930823     0.02300
C1192       C  0.61600087  0.45325976  0.26134041    -0.33500
H1193       H  0.58406612  0.49069311  0.23013313     0.13400
H1194       H  0.58573451  0.52330512  0.20887236     0.13200
H1195       H  0.65049573  0.52257840  0.21773851     0.13100
H1196       H  0.64883084  0.49007183  0.23892396     0.12100
C1197       C  0.01510211  0.62571366  0.50826977     0.18400
C1198       C  0.00614516  0.63987928  0.48822687    -0.10700
C1199       C  0.98542492  0.63936175  0.48181994    -0.11500
C1200       C  0.97354364  0.62469232  0.49544760     0.20000
C1201       C  0.98250783  0.61044270  0.51531730    -0.13600
C1202       C  0.00325991  0.61095960  0.52172801    -0.11900
C1203       C  0.95211637  0.62467033  0.48971343     0.01000
C1204       C  0.93424413  0.62589881  0.48468344    -0.31900
C1205       C  0.03627515  0.62669630  0.51608162     0.02300
C1206       C  0.05377263  0.62794498  0.52415819    -0.33500
H1207       H  0.01513278  0.65140222  0.47787267     0.13400
H1208       H  0.97863394  0.65048661  0.46654078     0.13200
H1209       H  0.97345313  0.59906919  0.52609614     0.13100
H1210       H  0.01002375  0.59998493  0.53743674     0.12100
C1211       C  0.72808984  0.62587296  0.58867350     0.18400
C1212       C  0.73417367  0.63099863  0.55354742    -0.10700
C1213       C  0.75461109  0.63038664  0.54317504    -0.11500
C1214       C  0.76909594  0.62463623  0.56786928     0.20000
C1215       C  0.76304177  0.61977551  0.60314491    -0.13600
C1216       C  0.74261643  0.62038173  0.61350800    -0.11900
C1217       C  0.79009466  0.62326199  0.55705154     0.01000
C1218       C  0.80789326  0.62139731  0.55032667    -0.31900
C1219       C  0.70690011  0.62534385  0.59853602     0.02300
C1220       C  0.68899462  0.62399607  0.60488285    -0.33500
H1221       H  0.72309152  0.63519553  0.53403163     0.13400
H1222       H  0.75907360  0.63416834  0.51583570     0.13200
H1223       H  0.77408389  0.61529356  0.62249765     0.13100
H1224       H  0.73812985  0.61630889  0.64067534     0.12100
C1225       C  0.01441729  0.62772014  0.00286433     0.18400
C1226       C  0.00097870  0.63163382  0.03162656    -0.10700
C1227       C  0.98021321  0.63214186  0.02576484    -0.11500
C1228       C  0.97276256  0.62872968  0.99109645     0.20000
C1229       C  0.98617591  0.62457072  0.96238449    -0.13600
C1230       C  0.00698295  0.62406377  0.96825828    -0.11900
C1231       C  0.95142475  0.63006798  0.98494383     0.01000
C1232       C  0.93353898  0.63184685  0.98061657    -0.31900
C1233       C  0.03578566  0.62789334  0.00908601     0.02300
C1234       C  0.05330932  0.62864643  0.01716402    -0.33500
H1235       H  0.00657149  0.63447966  0.05849548     0.13400
H1236       H  0.96999377  0.63539187  0.04815094     0.13200
H1237       H  0.98057337  0.62192763  0.93545682     0.13100
H1238       H  0.01724563  0.62101788  0.94583411     0.12100
C1239       C  0.87326126  0.62775922  0.79530508     0.18400
C1240       C  0.87972511  0.64360306  0.77614118    -0.10700
C1241       C  0.87929055  0.64372984  0.73824603    -0.11500
C1242       C  0.87237561  0.62800928  0.71925768     0.20000
C1243       C  0.86586831  0.61218591  0.73843002    -0.13600
C1244       C  0.86630355  0.61205879  0.77630936    -0.11900
C1245       C  0.87202275  0.62793312  0.68018496     0.01000
C1246       C  0.87132737  0.62653777  0.64761350    -0.31900
C1247       C  0.87370557  0.62771919  0.83437678     0.02300
C1248       C  0.87417120  0.62856358  0.86703745    -0.33500
H1249       H  0.88510778  0.65584729  0.79049227     0.13400
H1250       H  0.88436110  0.65604694  0.72379365     0.13200
H1251       H  0.86048596  0.59993778  0.72408712     0.13100
H1252       H  0.86123381  0.59973697  0.79074997     0.12100
C1253       C  0.87768504  0.61898871  0.29528283     0.18400
C1254       C  0.88366261  0.63560969  0.27827945    -0.10700
C1255       C  0.88248258  0.63727139  0.24068788    -0.11500
C1256       C  0.87530779  0.62231480  0.21987864     0.20000
C1257       C  0.86954603  0.60559895  0.23682280    -0.13600
C1258       C  0.87071802  0.60393897  0.27445312    -0.11900
C1259       C  0.87364177  0.62410004  0.18123525     0.01000
C1260       C  0.87182169  0.62440382  0.14881527    -0.31900
C1261       C  0.87801991  0.61782974  0.33416483     0.02300
C1262       C  0.87805393  0.61873036  0.36677383    -0.33500
H1263       H  0.88902035  0.64735723  0.29413638     0.13400
H1264       H  0.88699665  0.65024337  0.22791320     0.13200
H1265       H  0.86399455  0.59392520  0.22098390     0.13100
H1266       H  0.86600308  0.59104294  0.28729326     0.12100
C1267       C  0.76700190  0.62493029  0.06727169     0.18400
C1268       C  0.75274326  0.63123571  0.04264946    -0.10700
C1269       C  0.73215980  0.63112756  0.05209795    -0.11500
C1270       C  0.72571562  0.62472991  0.08621424     0.20000
C1271       C  0.73999053  0.61848079  0.11083558    -0.13600
C1272       C  0.76055015  0.61859230  0.10140048    -0.11900
C1273       C  0.70446406  0.62418273  0.09557588     0.01000
C1274       C  0.68654323  0.62327722  0.10206087    -0.31900
C1275       C  0.78821143  0.62456882  0.05762122     0.02300
C1276       C  0.80616624  0.62335139  0.05182319    -0.33500
H1277       H  0.75751091  0.63611887  0.01614982     0.13400
H1278       H  0.72127147  0.63592173  0.03275075     0.13200
H1279       H  0.73522559  0.61342588  0.13721481     0.13100
H1280       H  0.77141097  0.61362986  0.12064179     0.12100
C1281       C  0.01924697  0.38124507  0.95662199     0.18400
C1282       C  0.00462056  0.38821398  0.98102216    -0.10700
C1283       C  0.98410497  0.38734432  0.97254517    -0.11500
C1284       C  0.97800080  0.37950475  0.93957513     0.20000
C1285       C  0.99265111  0.37270949  0.91497283    -0.13600
C1286       C  0.01318766  0.37358284  0.92345882    -0.11900
C1287       C  0.95670908  0.37784651  0.93180283     0.01000
C1288       C  0.93873388  0.37596399  0.92743951    -0.31900
C1289       C  0.04030108  0.38111467  0.96636256     0.02300
C1290       C  0.05778298  0.37983988  0.97491292    -0.33500
H1291       H  0.00904668  0.39407084  0.00682364     0.13400
H1292       H  0.97298016  0.39256581  0.99192112     0.13200
H1293       H  0.98819214  0.36652600  0.88947494     0.13100
H1294       H  0.02430361  0.36804060  0.90440654     0.12100
C1295       C  0.72784281  0.38072299  0.83236378     0.18400
C1296       C  0.74083857  0.38200661  0.80206906    -0.10700
C1297       C  0.76182963  0.38119789  0.80623851    -0.11500
C1298       C  0.77003382  0.37910659  0.84073054     0.20000
C1299       C  0.75701933  0.37762447  0.87095205    -0.13600
C1300       C  0.73604312  0.37842726  0.86678346    -0.11900
C1301       C  0.79173807  0.37926663  0.84519982     0.01000
C1302       C  0.80989861  0.38042468  0.84810099    -0.31900
C1303       C  0.70618497  0.38234728  0.82853898     0.02300
C1304       C  0.68804853  0.38431427  0.82744854    -0.33500
H1305       H  0.73476936  0.38384661  0.77531110     0.13400
H1306       H  0.77166464  0.38244323  0.78262169     0.13200
H1307       H  0.76308466  0.37608600  0.89778893     0.13100
H1308       H  0.72622251  0.37747781  0.89047665     0.12100
C1309       C  0.87096082  0.52227968  0.95243033     0.18400
C1310       C  0.88759259  0.51429690  0.93421803    -0.10700
C1311       C  0.88799649  0.49505286  0.92712729    -0.11500
C1312       C  0.87180025  0.48369125  0.93830458     0.20000
C1313       C  0.85517560  0.49167572  0.95649577    -0.13600
C1314       C  0.85477019  0.51090465  0.96357801    -0.11900
C1315       C  0.87200323  0.46395038  0.93034486     0.01000
C1316       C  0.87181512  0.44760652  0.92210873    -0.31900
C1317       C  0.87060231  0.54202831  0.96046071     0.02300
C1318       C  0.86980093  0.55828834  0.96930281    -0.33500
H1319       H  0.90022797  0.52292545  0.92556921     0.13400
H1320       H  0.90089497  0.48904762  0.91289951     0.13200
H1321       H  0.84252963  0.48305358  0.96513043     0.13100
H1322       H  0.84185688  0.51689666  0.97778529     0.12100
C1323       C  0.02754377  0.37931604  0.47048040     0.18400
C1324       C  0.01275409  0.38804188  0.49229064    -0.10700
C1325       C  0.99251964  0.38775718  0.48186510    -0.11500
C1326       C  0.98706211  0.37873012  0.44964077     0.20000
C1327       C  0.00186470  0.36998341  0.42802054    -0.13600
C1328       C  0.02202078  0.37027269  0.43839889    -0.11900
C1329       C  0.96643046  0.37858606  0.43806518     0.01000
C1330       C  0.94963025  0.37818174  0.42605757    -0.31900
C1331       C  0.04841071  0.37939734  0.48067084     0.02300
C1332       C  0.06617326  0.37837957  0.48688678    -0.33500
H1333       H  0.01685497  0.39505162  0.51719998     0.13400
H1334       H  0.98119214  0.39459327  0.49877909     0.13200
H1335       H  0.99782948  0.36299128  0.40304951     0.13100
H1336       H  0.03331500  0.36345850  0.42136670     0.12100
C1337       C  0.87970443  0.37850195  0.67575495     0.18400
C1338       C  0.87557027  0.39545880  0.65875037    -0.10700
C1339       C  0.87525570  0.39639640  0.62101111    -0.11500
C1340       C  0.87909811  0.38038826  0.60001898     0.20000
C1341       C  0.88366262  0.36349114  0.61694146    -0.13600
C1342       C  0.88397351  0.36254934  0.65477859    -0.11900
C1343       C  0.87748139  0.38124919  0.56128355     0.01000
C1344       C  0.87518237  0.38245305  0.52909995    -0.31900
C1345       C  0.87863778  0.37750986  0.71465622     0.02300
C1346       C  0.87666906  0.37820787  0.74715738    -0.33500
H1347       H  0.87223202  0.40787771  0.67468776     0.13400
H1348       H  0.87167849  0.40951938  0.60822413     0.13200
H1349       H  0.88663348  0.35101689  0.60094916     0.13100
H1350       H  0.88718075  0.34936325  0.66763490     0.12100
C1351       C  0.87258031  0.38003620  0.10087222     0.18400
C1352       C  0.89032491  0.38429679  0.11931871    -0.10700
C1353       C  0.89065533  0.38342273  0.15712296    -0.11500
C1354       C  0.87325380  0.37825451  0.17680146     0.20000
C1355       C  0.85537679  0.37433007  0.15842513    -0.13600
C1356       C  0.85504651  0.37520458  0.12055232    -0.11900
C1357       C  0.87405868  0.37647719  0.21565366     0.01000
C1358       C  0.87581295  0.37495526  0.24799813    -0.31900
C1359       C  0.87277830  0.37961975  0.06180472     0.02300
C1360       C  0.87384408  0.37818717  0.02922666    -0.33500
H1361       H  0.90399905  0.38797264  0.10444666     0.13400
H1362       H  0.90456777  0.38649262  0.17097182     0.13200
H1363       H  0.84181592  0.37032375  0.17329681     0.13100
H1364       H  0.84124922  0.37180572  0.10661724     0.12100
C1365       C  0.72000691  0.38403359  0.33415977     0.18400
C1366       C  0.72939035  0.36662403  0.33747821    -0.10700
C1367       C  0.75032098  0.36564264  0.34155247    -0.11500
C1368       C  0.76190261  0.38206359  0.34228727     0.20000
C1369       C  0.75251758  0.39943401  0.33868917    -0.13600
C1370       C  0.73162782  0.40041370  0.33462000    -0.11900
C1371       C  0.78323579  0.38125902  0.34855347     0.01000
C1372       C  0.80083468  0.38129792  0.35619343    -0.31900
C1373       C  0.69841540  0.38528117  0.33169611     0.02300
C1374       C  0.68035809  0.38718280  0.33121027    -0.33500
H1375       H  0.72052327  0.35387552  0.33738071     0.13400
H1376       H  0.75741848  0.35214676  0.34461391     0.13200
H1377       H  0.76130872  0.41222077  0.33952951     0.13100
H1378       H  0.72450628  0.41394650  0.33230745     0.12100
C1379       C  0.87238670  0.51649258  0.45492580     0.18400
C1380       C  0.88732796  0.50506982  0.46952764    -0.10700
C1381       C  0.88793960  0.48587420  0.46130253    -0.11500
C1382       C  0.87363048  0.47781824  0.43830041     0.20000
C1383       C  0.85872706  0.48925664  0.42358607    -0.13600
C1384       C  0.85811384  0.50845934  0.43181905    -0.11900
C1385       C  0.87373239  0.45778702  0.43096043     0.01000
C1386       C  0.87278812  0.44095127  0.42653095    -0.31900
C1387       C  0.87142137  0.53624793  0.46451296     0.02300
C1388       C  0.87059103  0.55251277  0.47414874    -0.33500
H1389       H  0.89841824  0.51097098  0.48755879     0.13400
H1390       H  0.89947086  0.47728763  0.47316658     0.13200
H1391       H  0.84745125  0.48330046  0.40599718     0.13100
H1392       H  0.84639722  0.51699944  0.42040775     0.12100
C1393       C  0.12613193  0.27469575  0.90994663     0.18400
C1394       C  0.14125233  0.26400294  0.92585139    -0.10700
C1395       C  0.14146110  0.24450474  0.92159785    -0.11500
C1396       C  0.12656349  0.23543752  0.90135145     0.20000
C1397       C  0.11169901  0.24616299  0.88474309    -0.13600
C1398       C  0.11149139  0.26568512  0.88899890    -0.11900
C1399       C  0.12563212  0.21515605  0.90027582     0.01000
C1400       C  0.12425454  0.19834351  0.90368317    -0.31900
C1401       C  0.12490266  0.29463753  0.91723436     0.02300
C1402       C  0.12338604  0.31093030  0.92619503    -0.33500
H1403       H  0.15260104  0.27068990  0.94230492     0.13400
H1404       H  0.15294884  0.23645773  0.93489486     0.13200
H1405       H  0.09997130  0.23940619  0.86927890     0.13100
H1406       H  0.09962629  0.27369209  0.87669636     0.12100
C1407       C  0.13404073  0.27503623  0.41317966     0.18400
C1408       C  0.15119181  0.26449809  0.42138092    -0.10700
C1409       C  0.15083132  0.24489395  0.41836995    -0.11500
C1410       C  0.13331526  0.23556226  0.40710609     0.20000
C1411       C  0.11627087  0.24612558  0.39850967    -0.13600
C1412       C  0.11663024  0.26570166  0.40151847    -0.11900
C1413       C  0.13232548  0.21522324  0.40644051     0.01000
C1414       C  0.13037094  0.19836715  0.40867422    -0.31900
C1415       C  0.13380588  0.29520797  0.41883660     0.02300
C1416       C  0.13264554  0.31174270  0.42642425    -0.33500
H1417       H  0.16472708  0.27140220  0.43073792     0.13400
H1418       H  0.16409405  0.23700801  0.42545004     0.13200
H1419       H  0.10254744  0.23920474  0.39009096     0.13100
H1420       H  0.10317733  0.27353740  0.39537313     0.12100
C1421       C  0.11828640  0.12770980  0.71909873     0.18400
C1422       C  0.13271033  0.13731963  0.69813899    -0.10700
C1423       C  0.13270694  0.13573701  0.66037319    -0.11500
C1424       C  0.11832397  0.12447642  0.64328222     0.20000
C1425       C  0.10379433  0.11494912  0.66420134    -0.13600
C1426       C  0.10380226  0.11652823  0.70202239    -0.11900
C1427       C  0.11821789  0.12322693  0.60430253     0.01000
C1428       C  0.11818755  0.12383772  0.57165647    -0.31900
C1429       C  0.11902324  0.12860585  0.75807302     0.02300
C1430       C  0.12056098  0.12808162  0.79056569    -0.33500
H1431       H  0.14404985  0.14591492  0.71099723     0.13400
H1432       H  0.14393596  0.14327193  0.64450363     0.13200
H1433       H  0.09251393  0.10630085  0.65131080     0.13100
H1434       H  0.09263594  0.10893744  0.71792806     0.12100
C1435       C  0.12153661  0.12547449  0.14338574     0.18400
C1436       C  0.14031904  0.12740434  0.15985220    -0.10700
C1437       C  0.14137837  0.12959708  0.19742527    -0.11500
C1438       C  0.12365370  0.12995551  0.21871154     0.20000
C1439       C  0.10486232  0.12805804  0.20223613    -0.13600
C1440       C  0.10380295  0.12586680  0.16464993    -0.11900
C1441       C  0.12481627  0.13118482  0.25754721     0.01000
C1442       C  0.12595354  0.13036018  0.29004093    -0.31900
C1443       C  0.12044819  0.12397043  0.10458939     0.02300
C1444       C  0.11957608  0.12435056  0.07203588    -0.33500
H1445       H  0.15411930  0.12725704  0.14365433     0.13400
H1446       H  0.15599792  0.13089560  0.20988433     0.13200
H1447       H  0.09106611  0.12815910  0.21844466     0.13100
H1448       H  0.08918910  0.12452334  0.15218518     0.12100
C1449       C  0.36528266  0.27121453  0.87688299     0.18400
C1450       C  0.38291514  0.26124977  0.88418082    -0.10700
C1451       C  0.38323411  0.24174717  0.88061965    -0.11500
C1452       C  0.36592490  0.23204034  0.86972687     0.20000
C1453       C  0.34818264  0.24197165  0.86306501    -0.13600
C1454       C  0.34786366  0.26148036  0.86662858    -0.11900
C1455       C  0.36681483  0.21213268  0.86292636     0.01000
C1456       C  0.36830847  0.19585222  0.85428263    -0.31900
C1457       C  0.36562879  0.29141297  0.87662555     0.02300
C1458       C  0.36678560  0.30810919  0.87217695    -0.33500
H1459       H  0.39656220  0.26858913  0.89168310     0.13400
H1460       H  0.39711015  0.23428913  0.88550314     0.13200
H1461       H  0.33475180  0.23468809  0.85427520     0.13100
H1462       H  0.33420431  0.26900192  0.86046064     0.12100
C1463       C  0.22560667  0.12618271  0.87657209     0.18400
C1464       C  0.23826024  0.11666379  0.90008553    -0.10700
C1465       C  0.25902793  0.11579570  0.89283381    -0.11500
C1466       C  0.26729925  0.12442665  0.86201041     0.20000
C1467       C  0.25464907  0.13386975  0.83833430    -0.13600
C1468       C  0.23384031  0.13473410  0.84559420    -0.11900
C1469       C  0.28877574  0.12362457  0.85520121     0.01000
C1470       C  0.30688022  0.12224605  0.85213832    -0.31900
C1471       C  0.20412151  0.12644553  0.88349249     0.02300
C1472       C  0.18607215  0.12537117  0.88811171    -0.33500
H1473       H  0.23206313  0.10984368  0.92391641     0.13400
H1474       H  0.26864207  0.10840093  0.91127349     0.13200
H1475       H  0.26085147  0.14054356  0.81435536     0.13100
H1476       H  0.22418014  0.14197963  0.82701897     0.12100
C1477       C  0.36960378  0.23121017  0.36885741     0.18400
C1478       C  0.38755101  0.24062377  0.37730880    -0.10700
C1479       C  0.38776399  0.26014445  0.38112400    -0.11500
C1480       C  0.37002642  0.27044958  0.37655600     0.20000
C1481       C  0.35202995  0.26101026  0.36861750    -0.13600
C1482       C  0.35181717  0.24149810  0.36479682    -0.11900
C1483       C  0.37063899  0.29069294  0.37669282     0.01000
C1484       C  0.37150419  0.30741167  0.37200942    -0.31900
C1485       C  0.36972082  0.21122855  0.36206529     0.02300
C1486       C  0.37039971  0.19486393  0.35345233    -0.33500
H1487       H  0.40146910  0.23291950  0.38017067     0.13400
H1488       H  0.40185242  0.26722628  0.38676684     0.13200
H1489       H  0.33826081  0.26876949  0.36450883     0.13100
H1490       H  0.33787576  0.23448121  0.35790172     0.12100
C1491       C  0.38073255  0.12591967  0.60517688     0.18400
C1492       C  0.39866951  0.12638892  0.58445577    -0.10700
C1493       C  0.39794882  0.12667359  0.54659647    -0.11500
C1494       C  0.37928163  0.12655303  0.52931623     0.20000
C1495       C  0.36137355  0.12620797  0.55008075    -0.13600
C1496       C  0.36209368  0.12591736  0.58787620    -0.11900
C1497       C  0.37835653  0.12613426  0.49036363     0.01000
C1498       C  0.37671880  0.12476238  0.45796588    -0.31900
C1499       C  0.38135333  0.12572313  0.64414145     0.02300
C1500       C  0.38135346  0.12633807  0.67678796    -0.33500
H1501       H  0.41317102  0.12648197  0.59753705     0.13400
H1502       H  0.41190196  0.12687307  0.53084256     0.13200
H1503       H  0.34685802  0.12604402  0.53704344     0.13100
H1504       H  0.34812753  0.12564160  0.60359427     0.12100
C1505       C  0.37152861  0.12485331  0.02886636     0.18400
C1506       C  0.35426695  0.12831051  0.05035288    -0.10700
C1507       C  0.35529010  0.12753652  0.08812376    -0.11500
C1508       C  0.37356424  0.12324207  0.10463512     0.20000
C1509       C  0.39086177  0.11992847  0.08315948    -0.13600
C1510       C  0.38983890  0.12070244  0.04538743    -0.11900
C1511       C  0.37466015  0.12271242  0.14356433     0.01000
C1512       C  0.37560843  0.12342153  0.17614839    -0.31900
C1513       C  0.37030736  0.12491997  0.98993121     0.02300
C1514       C  0.36917215  0.12397078  0.95738855    -0.33500
H1515       H  0.34001343  0.13148900  0.03791782     0.13400
H1516       H  0.34184526  0.13025581  0.10443006     0.13200
H1517       H  0.40510816  0.11672511  0.09559558     0.13100
H1518       H  0.40327721  0.11795820  0.02908031     0.12100
C1519       C  0.22859356  0.12129179  0.38184457     0.18400
C1520       C  0.23920085  0.13767911  0.37299415    -0.10700
C1521       C  0.26014556  0.13716584  0.36683348    -0.11500
C1522       C  0.27064385  0.12025685  0.36942145     0.20000
C1523       C  0.26001182  0.10386682  0.37812119    -0.13600
C1524       C  0.23908847  0.10438041  0.38428183    -0.11900
C1525       C  0.29231641  0.11971362  0.36387687     0.01000
C1526       C  0.31048857  0.11875763  0.36043618    -0.31900
C1527       C  0.20693980  0.12167566  0.38766014     0.02300
C1528       C  0.18874538  0.12128316  0.39115734    -0.33500
H1529       H  0.23129141  0.15083346  0.37083500     0.13400
H1530       H  0.26814687  0.14994596  0.36016092     0.13200
H1531       H  0.26790330  0.09069965  0.38024560     0.13100
H1532       H  0.23109627  0.09158830  0.39091721     0.12100
C1533       C  0.37002627  0.77089679  0.63609834     0.18400
C1534       C  0.38606704  0.76066826  0.62055158    -0.10700
C1535       C  0.38715933  0.74124642  0.62529683    -0.11500
C1536       C  0.37223673  0.73186212  0.64566949     0.20000
C1537       C  0.35597919  0.74203779  0.66048927    -0.13600
C1538       C  0.35488569  0.76142818  0.65574416    -0.11900
C1539       C  0.37421383  0.71212026  0.65349532     0.01000
C1540       C  0.37609107  0.69604798  0.66299929    -0.31900
C1541       C  0.36999784  0.79116651  0.63490656     0.02300
C1542       C  0.37079923  0.80801727  0.63840577    -0.33500
H1543       H  0.39800645  0.76776080  0.60560766     0.13400
H1544       H  0.39989239  0.73363612  0.61385544     0.13200
H1545       H  0.34439794  0.73505372  0.67650485     0.13100
H1546       H  0.34250847  0.76910844  0.66826070     0.12100
C1547       C  0.37195801  0.02138568  0.75245908     0.18400
C1548       C  0.35571206  0.01306647  0.73456548    -0.10700
C1549       C  0.35661288  0.99423563  0.72400134    -0.11500
C1550       C  0.37374130  0.98352933  0.73126770     0.20000
C1551       C  0.39003901  0.99186719  0.74902364    -0.13600
C1552       C  0.38913730  0.01071466  0.75959457    -0.11900
C1553       C  0.37447875  0.96408375  0.72023859     0.01000
C1554       C  0.37417453  0.94804265  0.70959739    -0.31900
C1555       C  0.37084193  0.04068532  0.76426941     0.02300
C1556       C  0.36998706  0.05657699  0.77561322    -0.33500
H1557       H  0.34231855  0.02110082  0.72893466     0.13400
H1558       H  0.34392142  0.98800705  0.71024014     0.13200
H1559       H  0.40339580  0.98380675  0.75477112     0.13100
H1560       H  0.40178888  0.01693778  0.77347879     0.12100
C1561       C  0.36784414  0.73080430  0.14482276     0.18400
C1562       C  0.38060126  0.73969435  0.11953646    -0.10700
C1563       C  0.37959582  0.75910603  0.11497066    -0.11500
C1564       C  0.36581299  0.76976374  0.13562423     0.20000
C1565       C  0.35258707  0.76076733  0.15996544    -0.13600
C1566       C  0.35359005  0.74138322  0.16452188    -0.11900
C1567       C  0.36659490  0.78996542  0.13475033     0.01000
C1568       C  0.36830530  0.80671633  0.13835291    -0.31900
C1569       C  0.37043521  0.71121990  0.15290011     0.02300
C1570       C  0.37307147  0.69535544  0.16283268    -0.33500
H1571       H  0.39175876  0.73172714  0.10423990     0.13400
H1572       H  0.39002190  0.76586426  0.09627071     0.13200
H1573       H  0.34197303  0.76881197  0.17634215     0.13100
H1574       H  0.34370514  0.73473768  0.18428871     0.12100
C1575       C  0.37395887  0.87861561  0.88377339     0.18400
C1576       C  0.35765642  0.86958763  0.90104649    -0.10700
C1577       C  0.35608678  0.86944505  0.93890465    -0.11500
C1578       C  0.37083339  0.87829637  0.95975414     0.20000
C1579       C  0.38707960  0.88740079  0.94247246    -0.13600
C1580       C  0.38864891  0.88754333  0.90462070    -0.11900
C1581       C  0.36921827  0.87825831  0.99878833     0.01000
C1582       C  0.36798543  0.87901539  0.03144269    -0.31900
C1583       C  0.37580643  0.87835555  0.84476832     0.02300
C1584       C  0.37727058  0.87733376  0.81216371    -0.33500
H1585       H  0.34621322  0.86260316  0.88526322     0.13400
H1586       H  0.34341446  0.86241975  0.95189298     0.13200
H1587       H  0.39854243  0.89435875  0.95825219     0.13100
H1588       H  0.40134000  0.89454195  0.89163653     0.12100
C1589       C  0.37556634  0.87619499  0.38378440     0.18400
C1590       C  0.37558003  0.85947807  0.40330226    -0.10700
C1591       C  0.37465903  0.85991383  0.44114006    -0.11500
C1592       C  0.37371809  0.87706844  0.45956557     0.20000
C1593       C  0.37375755  0.89378158  0.44005310    -0.13600
C1594       C  0.37467743  0.89334639  0.40222746    -0.11900
C1595       C  0.37253687  0.87760398  0.49843839     0.01000
C1596       C  0.37135781  0.87893693  0.53092057    -0.31900
C1597       C  0.37641434  0.87570571  0.34487488     0.02300
C1598       C  0.37710727  0.87466491  0.31231382    -0.33500
H1599       H  0.37626465  0.84613683  0.38928069     0.13400
H1600       H  0.37462809  0.84691744  0.45598473     0.13200
H1601       H  0.37302497  0.90712306  0.45406990     0.13100
H1602       H  0.37465921  0.90634536  0.38739333     0.12100
C1603       C  0.37538458  0.01916211  0.25700936     0.18400
C1604       C  0.36397738  0.01380907  0.22703639    -0.10700
C1605       C  0.36328117  0.99504289  0.21594098    -0.11500
C1606       C  0.37396845  0.98140900  0.23471007     0.20000
C1607       C  0.38551601  0.98676443  0.26453152    -0.13600
C1608       C  0.38621175  0.00555199  0.27564223    -0.11900
C1609       C  0.37300237  0.96201153  0.22327709     0.01000
C1610       C  0.37188802  0.94602899  0.21241561    -0.31900
C1611       C  0.37547149  0.03847191  0.26918219     0.02300
C1612       C  0.37489893  0.05445722  0.28022584    -0.33500
H1613       H  0.35549640  0.02412149  0.21239245     0.13400
H1614       H  0.35432057  0.99115342  0.19281751     0.13200
H1615       H  0.39389077  0.97642092  0.27928852     0.13100
H1616       H  0.39506681  0.00943595  0.29889892     0.12100
C1617       C  0.12747210  0.72808409  0.58773845     0.18400
C1618       C  0.12426390  0.73807258  0.62024176    -0.10700
C1619       C  0.12431479  0.75773915  0.62052591    -0.11500
C1620       C  0.12759809  0.76767634  0.58830076     0.20000
C1621       C  0.13089358  0.75766676  0.55589790    -0.13600
C1622       C  0.13083863  0.73804175  0.55561349    -0.11900
C1623       C  0.12706830  0.78803333  0.58784705     0.01000
C1624       C  0.12605266  0.80485720  0.58382202    -0.31900
C1625       C  0.12678563  0.70772364  0.58711066     0.02300
C1626       C  0.12545146  0.69076280  0.58682897    -0.33500
H1627       H  0.12156096  0.73066350  0.64533210     0.13400
H1628       H  0.12164510  0.76517028  0.64580397     0.13200
H1629       H  0.13335857  0.76505003  0.53070577     0.13100
H1630       H  0.13326685  0.73063472  0.53023472     0.12100
C1631       C  0.12195099  0.01970948  0.47692181     0.18400
C1632       C  0.13691014  0.01291164  0.49974643    -0.10700
C1633       C  0.13731041  0.99394358  0.50923368    -0.11500
C1634       C  0.12278210  0.98142929  0.49602035     0.20000
C1635       C  0.10788050  0.98817394  0.47295363    -0.13600
C1636       C  0.10748120  0.00717668  0.46344438    -0.11900
C1637       C  0.12311132  0.96185197  0.50667835     0.01000
C1638       C  0.12382446  0.94577474  0.51707921    -0.31900
C1639       C  0.12162323  0.03943347  0.46725965     0.02300
C1640       C  0.12197555  0.05582579  0.45869133    -0.33500
H1641       H  0.14826931  0.02229644  0.51032617     0.13400
H1642       H  0.14894048  0.98905078  0.52704174     0.13200
H1643       H  0.09652368  0.97877221  0.46242313     0.13100
H1644       H  0.09585332  0.01209368  0.44565974     0.12100
C1645       C  0.26899603  0.88192393  0.62125925     0.18400
C1646       C  0.26251824  0.87562395  0.58729720    -0.10700
C1647       C  0.24187325  0.87514613  0.57941398    -0.11500
C1648       C  0.22748544  0.88099032  0.60540051     0.20000
C1649       C  0.23397886  0.88736931  0.63928622    -0.13600
C1650       C  0.25461049  0.88784783  0.64716326    -0.11900
C1651       C  0.20611719  0.88065871  0.59744192     0.01000
C1652       C  0.18805962  0.88110914  0.59271552    -0.31900
C1653       C  0.29035539  0.88254948  0.62923352     0.02300
C1654       C  0.30837154  0.88348528  0.63423420    -0.33500
H1655       H  0.27342826  0.87109979  0.56688773     0.13400
H1656       H  0.23714799  0.87024964  0.55306903     0.13200
H1657       H  0.22308420  0.89200486  0.65962875     0.13100
H1658       H  0.25933460  0.89285617  0.67343332     0.12100
C1659       C  0.12869077  0.72723236  0.07925170     0.18400
C1660       C  0.14009299  0.73736244  0.10447444    -0.10700
C1661       C  0.14015610  0.75703601  0.10438154    -0.11500
C1662       C  0.12879296  0.76685295  0.07909006     0.20000
C1663       C  0.11764424  0.75670133  0.05357844    -0.13600
C1664       C  0.11758253  0.73707008  0.05366942    -0.11900
C1665       C  0.12827247  0.78723320  0.07918316     0.01000
C1666       C  0.12674113  0.80410446  0.07638037    -0.31900
C1667       C  0.12768789  0.70687475  0.08037763     0.02300
C1668       C  0.12570843  0.68997508  0.08182915    -0.33500
H1669       H  0.14875817  0.73006337  0.12449024     0.13400
H1670       H  0.14891721  0.76457079  0.12423562     0.13200
H1671       H  0.10881746  0.76397637  0.03375160     0.13100
H1672       H  0.10866093  0.72956276  0.03400293     0.12100
C1673       C  0.11825816  0.88015809  0.84061471     0.18400
C1674       C  0.13601442  0.88482827  0.82160407    -0.10700
C1675       C  0.13685686  0.88325009  0.78389284    -0.11500
C1676       C  0.11996792  0.87695183  0.76500272     0.20000
C1677       C  0.10209927  0.87249440  0.78395917    -0.13600
C1678       C  0.10125853  0.87406843  0.82173454    -0.11900
C1679       C  0.12098641  0.87559661  0.72614561     0.01000
C1680       C  0.12262660  0.87597177  0.69361774    -0.31900
C1681       C  0.11793122  0.88045499  0.87952525     0.02300
C1682       C  0.11792517  0.87905684  0.91198936    -0.33500
H1683       H  0.14926939  0.88944996  0.83595061     0.13400
H1684       H  0.15070044  0.88685661  0.76947210     0.13200
H1685       H  0.08890534  0.86773591  0.76959996     0.13100
H1686       H  0.08748031  0.87032307  0.83622182     0.12100
C1687       C  0.12039316  0.87517995  0.34052191     0.18400
C1688       C  0.12522682  0.89112238  0.32036659    -0.10700
C1689       C  0.12510839  0.89034899  0.28252435    -0.11500
C1690       C  0.12015532  0.87363448  0.26466158     0.20000
C1691       C  0.11514234  0.85774050  0.28482628    -0.13600
C1692       C  0.11525750  0.85851511  0.32267127    -0.11900
C1693       C  0.12057503  0.87284298  0.22569471     0.01000
C1694       C  0.12161664  0.87359505  0.19311438    -0.31900
C1695       C  0.12088889  0.87575446  0.37945498     0.02300
C1696       C  0.12100348  0.87504950  0.41204609    -0.33500
H1697       H  0.12919559  0.90408021  0.33386484     0.13400
H1698       H  0.12900442  0.90273508  0.26719453     0.13200
H1699       H  0.11128395  0.84475473  0.27132656     0.13100
H1700       H  0.11146914  0.84610333  0.33800359     0.12100
C1701       C  0.12410128  0.02043490  0.98326133     0.18400
C1702       C  0.10748893  0.01303946  0.00254503    -0.10700
C1703       C  0.10700744  0.99407121  0.01213606    -0.11500
C1704       C  0.12311272  0.98221470  0.00251328     0.20000
C1705       C  0.13975403  0.98963018  0.98333328    -0.13600
C1706       C  0.14023515  0.00859403  0.97374468    -0.11900
C1707       C  0.12267450  0.96257376  0.01259521     0.01000
C1708       C  0.12265270  0.94630403  0.02187059    -0.31900
C1709       C  0.12451905  0.04003105  0.97291586     0.02300
C1710       C  0.12496793  0.05624134  0.96331107    -0.33500
H1711       H  0.09487908  0.02192662  0.01013065     0.13400
H1712       H  0.09405578  0.98865547  0.02704631     0.13200
H1713       H  0.15237030  0.98074904  0.97575389     0.13100
H1714       H  0.15319130  0.01401031  0.95884443     0.12100
C1715       C  0.22543260  0.87876875  0.10932653     0.18400
C1716       C  0.23134105  0.88146298  0.14530531    -0.10700
C1717       C  0.25186817  0.88152984  0.15404567    -0.11500
C1718       C  0.26667293  0.87888963  0.12686914     0.20000
C1719       C  0.26074482  0.87614040  0.09095300    -0.13600
C1720       C  0.24024326  0.87607980  0.08222123    -0.11900
C1721       C  0.28794244  0.87957522  0.13526136     0.01000
C1722       C  0.30599916  0.88082189  0.13933875    -0.31900
C1723       C  0.20424711  0.87911156  0.10024671     0.02300
C1724       C  0.18635428  0.88000985  0.09429203    -0.33500
H1725       H  0.22008818  0.88362954  0.16655870     0.13400
H1726       H  0.25618141  0.88377395  0.18188639     0.13200
H1727       H  0.27199489  0.87418443  0.06961763     0.13100
H1728       H  0.23595798  0.87405211  0.05430792     0.12100
C1729       C  0.47631906  0.12596358  0.79661614     0.18400
C1730       C  0.48696137  0.14063506  0.81296645    -0.10700
C1731       C  0.50809090  0.14099240  0.81140833    -0.11500
C1732       C  0.51876663  0.12668465  0.79346722     0.20000
C1733       C  0.50814540  0.11187106  0.77751243    -0.13600
C1734       C  0.48698821  0.11151443  0.77906899    -0.11900
C1735       C  0.54051548  0.12767142  0.79026753     0.01000
C1736       C  0.55860277  0.12949970  0.78693169    -0.31900
C1737       C  0.45451819  0.12632947  0.79630724     0.02300
C1738       C  0.43639107  0.12784322  0.79464605    -0.33500
H1739       H  0.47891907  0.15195005  0.82642192     0.13400
H1740       H  0.51608913  0.15256604  0.82372452     0.13200
H1741       H  0.51619421  0.10076080  0.76343304     0.13100
H1742       H  0.47896149  0.10014635  0.76612806     0.12100
C1743       C  0.62534544  0.27522409  0.84543497     0.18400
C1744       C  0.61031928  0.26552323  0.86497346    -0.10700
C1745       C  0.61086503  0.24594831  0.86715426    -0.11500
C1746       C  0.62644767  0.23585051  0.84984729     0.20000
C1747       C  0.64162077  0.24558357  0.83074863    -0.13600
C1748       C  0.64107645  0.26514294  0.82857312    -0.11900
C1749       C  0.62608471  0.21555258  0.84935627     0.01000
C1750       C  0.62494392  0.19874165  0.84527787    -0.31900
C1751       C  0.62406291  0.29531800  0.84085768     0.02300
C1752       C  0.62268830  0.31183486  0.83420490    -0.33500
H1753       H  0.59797091  0.27305156  0.87793142     0.13400
H1754       H  0.59890740  0.23867140  0.88170560     0.13200
H1755       H  0.65365410  0.23802919  0.81689391     0.13100
H1756       H  0.65271940  0.27237431  0.81313257     0.12100
C1757       C  0.47710939  0.12992610  0.28319808     0.18400
C1758       C  0.48817754  0.11729992  0.30374099    -0.10700
C1759       C  0.50933030  0.11791756  0.30289049    -0.11500
C1760       C  0.51952037  0.13116571  0.28149425     0.20000
C1761       C  0.50843520  0.14379621  0.26103502    -0.13600
C1762       C  0.48731977  0.14317961  0.26188349    -0.11900
C1763       C  0.54129784  0.13195089  0.28051577     0.01000
C1764       C  0.55947532  0.13330962  0.27902691    -0.31900
C1765       C  0.45531886  0.12946182  0.28397689     0.02300
C1766       C  0.43709619  0.12999223  0.28370278    -0.33500
H1767       H  0.48047375  0.10701321  0.32038960     0.13400
H1768       H  0.51771753  0.10809787  0.31889078     0.13200
H1769       H  0.51611499  0.15412664  0.24444575     0.13100
H1770       H  0.47895597  0.15304479  0.24593936     0.12100
C1771       C  0.62128261  0.27660734  0.34801249     0.18400
C1772       C  0.63707577  0.26772346  0.36585103    -0.10700
C1773       C  0.63795835  0.24812608  0.36695856    -0.11500
C1774       C  0.62304399  0.23727271  0.35025091     0.20000
C1775       C  0.60706597  0.24619765  0.33307634    -0.13600
C1776       C  0.60618547  0.26573316  0.33197682    -0.11900
C1777       C  0.62444996  0.21706800  0.34880952     0.01000
C1778       C  0.62444874  0.20032732  0.34360959    -0.31900
C1779       C  0.62112286  0.29671768  0.34376931     0.02300
C1780       C  0.62039218  0.31312058  0.33606518    -0.33500
H1781       H  0.64891899  0.27591655  0.37819712     0.13400
H1782       H  0.65045178  0.24146177  0.38019484     0.13200
H1783       H  0.59548025  0.23804037  0.31987653     0.13100
H1784       H  0.59395440  0.27235529  0.31789766     0.12100
C1785       C  0.62056621  0.12938228  0.59943201     0.18400
C1786       C  0.60398202  0.13580435  0.58014349    -0.10700
C1787       C  0.60498381  0.13666944  0.54234543    -0.11500
C1788       C  0.62259629  0.13116550  0.52367301     0.20000
C1789       C  0.63918587  0.12473900  0.54296115    -0.13600
C1790       C  0.63818388  0.12387387  0.58076509    -0.11900
C1791       C  0.62345143  0.13151891  0.48472709     0.01000
C1792       C  0.62434702  0.13058464  0.45214154    -0.31900
C1793       C  0.61965237  0.12893675  0.63836619     0.02300
C1794       C  0.61882737  0.12957699  0.67097488    -0.33500
H1795       H  0.59031153  0.14016579  0.59431707     0.13400
H1796       H  0.59203443  0.14156607  0.52770356     0.13200
H1797       H  0.65284627  0.12035336  0.52878281     0.13100
H1798       H  0.65112253  0.11895305  0.59540884     0.12100
C1799       C  0.62610407  0.12730422  0.02323210     0.18400
C1800       C  0.63492777  0.11261068  0.04212892    -0.10700
C1801       C  0.63411399  0.11243866  0.07998766    -0.11500
C1802       C  0.62445991  0.12695625  0.09905149     0.20000
C1803       C  0.61561049  0.14161800  0.08013880    -0.13600
C1804       C  0.61642495  0.14179062  0.04231236    -0.11900
C1805       C  0.62378637  0.12706046  0.13797919     0.01000
C1806       C  0.62286272  0.12840372  0.17049400    -0.31900
C1807       C  0.62681223  0.12738411  0.98430276     0.02300
C1808       C  0.62745103  0.12664203  0.95170808    -0.33500
H1809       H  0.64241655  0.10131364  0.02761073     0.13400
H1810       H  0.64102054  0.10104875  0.09434802     0.13200
H1811       H  0.60812513  0.15292416  0.09463830     0.13100
H1812       H  0.60952193  0.15319030  0.02797340     0.12100
C1813       C  0.01949147  0.12625533  0.95342871     0.18400
C1814       C  0.00664275  0.12673293  0.98397417    -0.10700
C1815       C  0.98572738  0.12775017  0.97984644    -0.11500
C1816       C  0.97754250  0.12830535  0.94516062     0.20000
C1817       C  0.99036450  0.12753231  0.91460137    -0.13600
C1818       C  0.01129074  0.12651073  0.91873090    -0.11900
C1819       C  0.95606852  0.13027405  0.94113533     0.01000
C1820       C  0.93806523  0.13245981  0.93942285    -0.31900
C1821       C  0.04106833  0.12658452  0.95767240     0.02300
C1822       C  0.05908272  0.12811111  0.96103649    -0.33500
H1823       H  0.01280150  0.12664217  0.01093346     0.13400
H1824       H  0.97596452  0.12838247  0.00367484     0.13200
H1825       H  0.98421728  0.12799400  0.88765611     0.13100
H1826       H  0.02107961  0.12624481  0.89491720     0.12100
C1827       C  0.87259657  0.23269063  0.84770425     0.18400
C1828       C  0.85545362  0.24284586  0.85852239    -0.10700
C1829       C  0.85570604  0.26236242  0.85737652    -0.11500
C1830       C  0.87310475  0.27181551  0.84539555     0.20000
C1831       C  0.89006940  0.26165711  0.83364566    -0.13600
C1832       C  0.88981933  0.24212261  0.83480350    -0.11900
C1833       C  0.87414317  0.29184253  0.84836593     0.01000
C1834       C  0.87527573  0.30835439  0.85464703    -0.31900
C1835       C  0.87318051  0.21285007  0.85352875     0.02300
C1836       C  0.87399887  0.19678182  0.86290011    -0.33500
H1837       H  0.84215085  0.23571003  0.86897989     0.13400
H1838       H  0.84258584  0.27008225  0.86691133     0.13200
H1839       H  0.90367617  0.26883603  0.82471094     0.13100
H1840       H  0.90324731  0.23442244  0.82680321     0.12100
C1841       C  0.72838720  0.12836454  0.85091777     0.18400
C1842       C  0.74130002  0.12254643  0.82259642    -0.10700
C1843       C  0.76219244  0.12212531  0.82749274    -0.11500
C1844       C  0.77033290  0.12749546  0.86076739     0.20000
C1845       C  0.75744669  0.13353355  0.88898517    -0.13600
C1846       C  0.73653181  0.13395551  0.88408309    -0.11900
C1847       C  0.79181405  0.12623521  0.86610210     0.01000
C1848       C  0.80981691  0.12442565  0.86928976    -0.31900
C1849       C  0.70679366  0.12770801  0.84649838     0.02300
C1850       C  0.68871689  0.12607850  0.84398527    -0.33500
H1851       H  0.73520276  0.11808793  0.79691639     0.13400
H1852       H  0.77197537  0.11738462  0.80549024     0.13200
H1853       H  0.76353322  0.13767783  0.91486223     0.13100
H1854       H  0.72671042  0.13838259  0.90627504     0.12100
C1855       C  0.01912016  0.13180821  0.45412023     0.18400
C1856       C  0.00722103  0.11598884  0.46140317    -0.10700
C1857       C  0.98622574  0.11675668  0.45777146    -0.11500
C1858       C  0.97702446  0.13334363  0.44682838     0.20000
C1859       C  0.98892735  0.14914651  0.43956863    -0.13600
C1860       C  0.00989345  0.14838120  0.44319894    -0.11900
C1861       C  0.95537597  0.13436647  0.44392802     0.01000
C1862       C  0.93725874  0.13589086  0.44268355    -0.31900
C1863       C  0.04075588  0.13117423  0.45788185     0.02300
C1864       C  0.05889136  0.13157218  0.46074551    -0.33500
H1865       H  0.01415374  0.10310629  0.46994383     0.13400
H1866       H  0.97717910  0.10447054  0.46363687     0.13200
H1867       H  0.98199523  0.16207563  0.43126616     0.13100
H1868       H  0.01890387  0.16071983  0.43756697     0.12100
C1869       C  0.87532526  0.28097252  0.36648893     0.18400
C1870       C  0.86866663  0.27269190  0.39892427    -0.10700
C1871       C  0.86775045  0.25314085  0.40203729    -0.11500
C1872       C  0.87346396  0.24155744  0.37275688     0.20000
C1873       C  0.88018834  0.24983266  0.34035573    -0.13600
C1874       C  0.88110422  0.26939236  0.33724069    -0.11900
C1875       C  0.87286645  0.22128888  0.37638245     0.01000
C1876       C  0.87296615  0.20452020  0.38157455    -0.31900
C1877       C  0.87651363  0.30124886  0.36340860     0.02300
C1878       C  0.87809431  0.31813428  0.36080033    -0.33500
H1879       H  0.86423715  0.28134742  0.42188493     0.13400
H1880       H  0.86264890  0.24705790  0.42737240     0.13200
H1881       H  0.88480000  0.24117082  0.31751823     0.13100
H1882       H  0.88638829  0.27547977  0.31202629     0.12100
C1883       C  0.87523760  0.12606107  0.69538603     0.18400
C1884       C  0.89211832  0.12004608  0.67513723    -0.10700
C1885       C  0.89194489  0.12064862  0.63730826    -0.11500
C1886       C  0.87486748  0.12721347  0.61961971     0.20000
C1887       C  0.85806910  0.13338082  0.63988886    -0.13600
C1888       C  0.85824298  0.13278114  0.67768804    -0.11900
C1889       C  0.87471088  0.12801385  0.58074470     0.01000
C1890       C  0.87487219  0.12969836  0.54831914    -0.31900
C1891       C  0.87510538  0.12496633  0.73424371     0.02300
C1892       C  0.87425218  0.12368491  0.76673807    -0.33500
H1893       H  0.90533665  0.11482496  0.68855986     0.13400
H1894       H  0.90507453  0.11597975  0.62188389     0.13200
H1895       H  0.84484951  0.13861432  0.62648432     0.13100
H1896       H  0.84511180  0.13746540  0.69309291     0.12100
C1897       C  0.87552439  0.13598276  0.11967048     0.18400
C1898       C  0.85690237  0.13757012  0.13801068    -0.10700
C1899       C  0.85613986  0.13878767  0.17582165    -0.11500
C1900       C  0.87400019  0.13848955  0.19553810     0.20000
C1901       C  0.89266273  0.13722004  0.17718506    -0.13600
C1902       C  0.89342610  0.13600477  0.13933525    -0.11900
C1903       C  0.87305105  0.13837241  0.23454670     0.01000
C1904       C  0.87187049  0.13679884  0.26701838    -0.31900
C1905       C  0.87620373  0.13443466  0.08073231     0.02300
C1906       C  0.87668597  0.13394616  0.04806066    -0.33500
H1907       H  0.84297261  0.13768384  0.12310908     0.13400
H1908       H  0.84162081  0.13968596  0.18969611     0.13200
H1909       H  0.90657245  0.13690008  0.19212942     0.13100
H1910       H  0.90792686  0.13490184  0.12545629     0.12100
C1911       C  0.76907955  0.13029184  0.36609753     0.18400
C1912       C  0.75642837  0.14297419  0.38458242    -0.10700
C1913       C  0.73548545  0.14230231  0.37973644    -0.11500
C1914       C  0.72707925  0.12897010  0.35632743     0.20000
C1915       C  0.73975135  0.11633618  0.33785331    -0.13600
C1916       C  0.76064523  0.11700559  0.34268920    -0.11900
C1917       C  0.70548365  0.12790681  0.35175202     0.01000
C1918       C  0.68742379  0.12627716  0.34862886    -0.31900
C1919       C  0.79067679  0.13068775  0.37099465     0.02300
C1920       C  0.80884578  0.12986886  0.37315185    -0.33500
H1921       H  0.76272681  0.15331004  0.40277385     0.13400
H1922       H  0.72586336  0.15210679  0.39431689     0.13200
H1923       H  0.73347307  0.10591411  0.31981521     0.13100
H1924       H  0.77022671  0.10711140  0.32824780     0.12100
C1925       C  0.86613961  0.73197921  0.54560957     0.18400
C1926       C  0.85203501  0.74243795  0.52650062    -0.10700
C1927       C  0.85205911  0.76202407  0.52876908    -0.11500
C1928       C  0.86618158  0.77143663  0.55018740     0.20000
C1929       C  0.88017110  0.76098063  0.56960901    -0.13600
C1930       C  0.88014476  0.74136812  0.56734222    -0.11900
C1931       C  0.86711253  0.79173860  0.55013458     0.01000
C1932       C  0.86858539  0.80852400  0.54623143    -0.31900
C1933       C  0.86688501  0.71178254  0.54126468     0.02300
C1934       C  0.86805178  0.69515477  0.53479454    -0.33500
H1935       H  0.84122476  0.73546643  0.50933065     0.13400
H1936       H  0.84128535  0.76984334  0.51326801     0.13200
H1937       H  0.89133129  0.76798888  0.58598262     0.13100
H1938       H  0.89126598  0.73355287  0.58204727     0.12100
C1939       C  0.01968410  0.87469204  0.51374414     0.18400
C1940       C  0.00874885  0.85826298  0.50705897    -0.10700
C1941       C  0.98781125  0.85893277  0.50291149    -0.11500
C1942       C  0.97762709  0.87604444  0.50535953     0.20000
C1943       C  0.98853502  0.89248587  0.51218589    -0.13600
C1944       C  0.00951011  0.89181486  0.51633937    -0.11900
C1945       C  0.95606385  0.87662335  0.50043523     0.01000
C1946       C  0.93805926  0.87606434  0.49580806    -0.31900
C1947       C  0.04133427  0.87388242  0.51726410     0.02300
C1948       C  0.05945083  0.87233118  0.51891867    -0.33500
H1949       H  0.01642210  0.84494649  0.50488725     0.13400
H1950       H  0.97957863  0.84612095  0.49762414     0.13200
H1951       H  0.98085536  0.90580337  0.51412140     0.13100
H1952       H  0.01778392  0.90462565  0.52139855     0.12100
C1953       C  0.87563813  0.02524060  0.45185957     0.18400
C1954       C  0.87656891  0.01156464  0.42433791    -0.10700
C1955       C  0.87634723  0.99242417  0.43294163    -0.11500
C1956       C  0.87519449  0.98666938  0.46921186     0.20000
C1957       C  0.87440750  0.00035011  0.49665357    -0.13600
C1958       C  0.87462935  0.01945348  0.48806719    -0.11900
C1959       C  0.87467524  0.96687935  0.47856431     0.01000
C1960       C  0.87408990  0.95065169  0.48827131    -0.31900
C1961       C  0.87525323  0.04510434  0.44305306     0.02300
C1962       C  0.87437367  0.06157626  0.43511292    -0.33500
H1963       H  0.87733577  0.01568791  0.39619706     0.13400
H1964       H  0.87697890  0.98213377  0.41129985     0.13200
H1965       H  0.87352164  0.99624802  0.52479973     0.13100
H1966       H  0.87387903  0.02972224  0.50973704     0.12100
C1967       C  0.86195749  0.77259121  0.06711221     0.18400
C1968       C  0.87732992  0.76267288  0.08400587    -0.10700
C1969       C  0.87786557  0.74312488  0.08177226    -0.11500
C1970       C  0.86303239  0.73337541  0.06262377     0.20000
C1971       C  0.84733493  0.74327215  0.04665890    -0.13600
C1972       C  0.84680034  0.76280042  0.04889066    -0.11900
C1973       C  0.86481019  0.71348037  0.05658597     0.01000
C1974       C  0.86670870  0.69726480  0.04783096    -0.31900
C1975       C  0.86297051  0.79270347  0.06482756     0.02300
C1976       C  0.86488640  0.80911193  0.05806827    -0.33500
H1977       H  0.88927540  0.77006730  0.09779555     0.13400
H1978       H  0.89018367  0.73567328  0.09395783     0.13200
H1979       H  0.83587919  0.73593866  0.03148942     0.13100
H1980       H  0.83497456  0.77028724  0.03532386     0.12100
C1981       C  0.01766234  0.87331932  0.01414586     0.18400
C1982       C  0.00505875  0.87796053  0.04375881    -0.10700
C1983       C  0.98405172  0.87840436  0.03984100    -0.11500
C1984       C  0.97550015  0.87421657  0.00627581     0.20000
C1985       C  0.98811059  0.86960729  0.97667829    -0.13600
C1986       C  0.00909070  0.86916245  0.98059059    -0.11900
C1987       C  0.95383354  0.87417671  0.00226558     0.01000
C1988       C  0.93578141  0.87331115  0.99819971    -0.31900
C1989       C  0.03933220  0.87261018  0.01806454     0.02300
C1990       C  0.05751535  0.87150944  0.01968735    -0.33500
H1991       H  0.01145433  0.88115916  0.06986760     0.13400
H1992       H  0.97449189  0.88191183  0.06299251     0.13200
H1993       H  0.98172038  0.86626061  0.95062601     0.13100
H1994       H  0.01862193  0.86550554  0.95748407     0.12100
C1995       C  0.87865673  0.87504281  0.73180635     0.18400
C1996       C  0.89264297  0.88650016  0.74951029    -0.10700
C1997       C  0.89316841  0.88697224  0.78739971    -0.11500
C1998       C  0.87968276  0.87601552  0.80787965     0.20000
C1999       C  0.86593676  0.86430671  0.79016470    -0.13600
C2000       C  0.86540883  0.86383712  0.75227534    -0.11900
C2001       C  0.87982964  0.87681068  0.84697754     0.01000
C2002       C  0.87965832  0.87666126  0.87970864    -0.31900
C2003       C  0.87720753  0.87558352  0.69284916     0.02300
C2004       C  0.87551551  0.87733094  0.66052374    -0.33500
H2005       H  0.90293362  0.89527389  0.73404276     0.13400
H2006       H  0.90392713  0.89601980  0.80070316     0.13200
H2007       H  0.85548435  0.85569843  0.80564095     0.13100
H2008       H  0.85448626  0.85495782  0.73898137     0.12100
C2009       C  0.87465967  0.88175195  0.23246463     0.18400
C2010       C  0.89061312  0.87276466  0.24950861    -0.10700
C2011       C  0.89231814  0.87381051  0.28717443    -0.11500
C2012       C  0.87811119  0.88388604  0.30797267     0.20000
C2013       C  0.86215604  0.89286102  0.29092137    -0.13600
C2014       C  0.86045080  0.89181462  0.25326946    -0.11900
C2015       C  0.87947346  0.88436277  0.34684811     0.01000
C2016       C  0.88025820  0.88340116  0.37938013    -0.31900
C2017       C  0.87306909  0.88107691  0.19363282     0.02300
C2018       C  0.87152314  0.88162882  0.16117060    -0.33500
H2019       H  0.90171544  0.86498356  0.23371345     0.13400
H2020       H  0.90464293  0.86670623  0.30008177     0.13200
H2021       H  0.85100648  0.90058317  0.30672044     0.13100
H2022       H  0.84807859  0.89885941  0.24038330     0.12100
C2023       C  0.87474013  0.02332962  0.96048038     0.18400
C2024       C  0.89191069  0.01271325  0.95153052    -0.10700
C2025       C  0.89175257  0.99329415  0.95638186    -0.11500
C2026       C  0.87439689  0.98434319  0.97009517     0.20000
C2027       C  0.85724374  0.99497195  0.97900065    -0.13600
C2028       C  0.85740407  0.01436313  0.97416717    -0.11900
C2029       C  0.87423253  0.96438859  0.97606079     0.01000
C2030       C  0.87334795  0.94797572  0.98356734    -0.31900
C2031       C  0.87457254  0.04326586  0.95435886     0.02300
C2032       C  0.87367755  0.05967709  0.94697013    -0.33500
H2033       H  0.90537592  0.01942799  0.94069841     0.13400
H2034       H  0.90514400  0.98528353  0.94949941     0.13200
H2035       H  0.84374710  0.98826952  0.98974201     0.13100
H2036       H  0.84398369  0.02235099  0.98097624     0.12100
C2037       C  0.62803978  0.73530075  0.60743774     0.18400
C2038       C  0.64636245  0.74511435  0.60951533    -0.10700
C2039       C  0.64655698  0.76472482  0.61020038    -0.11500
C2040       C  0.62842937  0.77474758  0.60881841     0.20000
C2041       C  0.61012799  0.76493975  0.60610945    -0.13600
C2042       C  0.60993302  0.74533055  0.60542792    -0.11900
C2043       C  0.62844399  0.79492946  0.61291944     0.01000
C2044       C  0.62778831  0.81150379  0.61988803    -0.31900
C2045       C  0.62768559  0.71507839  0.61013873     0.02300
C2046       C  0.62695655  0.69844343  0.61608325    -0.33500
H2047       H  0.66046675  0.73760977  0.61145830     0.13400
H2048       H  0.66080649  0.77205449  0.61265857     0.13200
H2049       H  0.59596718  0.77243869  0.60537858     0.13100
H2050       H  0.59562533  0.73799779  0.60418503     0.12100
C2051       C  0.47848752  0.87872746  0.69152740     0.18400
C2052       C  0.48974630  0.88010815  0.72319113    -0.10700
C2053       C  0.51086211  0.88076613  0.72117626    -0.11500
C2054       C  0.52091663  0.88006519  0.68747208     0.20000
C2055       C  0.50966469  0.87893222  0.65573896    -0.13600
C2056       C  0.48851766  0.87827298  0.65775668    -0.11900
C2057       C  0.54272668  0.87974054  0.68572381     0.01000
C2058       C  0.56093179  0.87856289  0.68566981    -0.31900
C2059       C  0.45674508  0.87714829  0.69393895     0.02300
C2060       C  0.43864733  0.87524185  0.69698422    -0.33500
H2061       H  0.48221101  0.88042838  0.74946404     0.13400
H2062       H  0.51935307  0.88156829  0.74592462     0.13200
H2063       H  0.51723068  0.87830925  0.62951363     0.13100
H2064       H  0.48001870  0.87716636  0.63305855     0.12100
C2065       C  0.62624324  0.02381381  0.74448979     0.18400
C2066       C  0.62171420  0.00901689  0.76804084    -0.10700
C2067       C  0.62202216  0.99047907  0.75535614    -0.11500
C2068       C  0.62687014  0.98653305  0.71897197     0.20000
C2069       C  0.63146043  0.00132256  0.69546084    -0.13600
C2070       C  0.63115163  0.01985461  0.70814046    -0.11900
C2071       C  0.62703731  0.96740945  0.70562819     0.01000
C2072       C  0.62722582  0.95162777  0.69343741    -0.31900
C2073       C  0.62601937  0.04296633  0.75771872     0.02300
C2074       C  0.62606830  0.05878008  0.76978156    -0.33500
H2075       H  0.61794298  0.01180710  0.79621757     0.13400
H2076       H  0.61845465  0.97924092  0.77390363     0.13200
H2077       H  0.63525364  0.99853261  0.66729233     0.13100
H2078       H  0.63474035  0.03108660  0.68959248     0.12100
C2079       C  0.77075078  0.88306252  0.57807429     0.18400
C2080       C  0.75685929  0.88984856  0.55324698    -0.10700
C2081       C  0.73619338  0.89012459  0.56206949    -0.11500
C2082       C  0.72922959  0.88364287  0.59581841     0.20000
C2083       C  0.74309288  0.87666800  0.62049593    -0.13600
C2084       C  0.76376516  0.87638924  0.61166880    -0.11900
C2085       C  0.70795257  0.88455007  0.60522939     0.01000
C2086       C  0.69002425  0.88597774  0.61147346    -0.31900
C2087       C  0.79217370  0.88355275  0.56969001     0.02300
C2088       C  0.81021871  0.88458056  0.56427550    -0.33500
H2089       H  0.76201602  0.89510677  0.52724718     0.13400
H2090       H  0.72566873  0.89556465  0.54271619     0.13200
H2091       H  0.73795427  0.87162218  0.64666584     0.13100
H2092       H  0.77431660  0.87115857  0.63118805     0.12100
C2093       C  0.63030565  0.73722737  0.10221937     0.18400
C2094       C  0.64590820  0.74745338  0.11834040    -0.10700
C2095       C  0.64535433  0.76705025  0.11940137    -0.11500
C2096       C  0.62919089  0.77672713  0.10435898     0.20000
C2097       C  0.61381667  0.76654222  0.08738653    -0.13600
C2098       C  0.61437059  0.74690449  0.08632552    -0.11900
C2099       C  0.62775690  0.79688996  0.10883678     0.01000
C2100       C  0.62632393  0.81341203  0.11615956    -0.31900
C2101       C  0.62982452  0.71696376  0.10506309     0.02300
C2102       C  0.62888923  0.70040827  0.11196881    -0.33500
H2103       H  0.65823802  0.74025979  0.13104342     0.13400
H2104       H  0.65728410  0.77463980  0.13284480     0.13200
H2105       H  0.60113755  0.77374378  0.07582886     0.13100
H2106       H  0.60209037  0.73927311  0.07402445     0.12100
C2107       C  0.47725933  0.87653792  0.19467142     0.18400
C2108       C  0.48722277  0.89299791  0.20510584    -0.10700
C2109       C  0.50838491  0.89384771  0.20444179    -0.11500
C2110       C  0.51972153  0.87823880  0.19333505     0.20000
C2111       C  0.50973866  0.86183409  0.18275574    -0.13600
C2112       C  0.48861682  0.86098571  0.18341869    -0.11900
C2113       C  0.54154497  0.87880016  0.19319357     0.01000
C2114       C  0.55978815  0.87809766  0.19297101    -0.31900
C2115       C  0.45545847  0.87537009  0.19623643     0.02300
C2116       C  0.43729594  0.87364178  0.19818096    -0.33500
H2117       H  0.47865003  0.90511204  0.21395970     0.13400
H2118       H  0.51588491  0.90660919  0.21275949     0.13200
H2119       H  0.51829068  0.84965387  0.17418174     0.13100
H2120       H  0.48114638  0.84815912  0.17537907     0.12100
C2121       C  0.62081634  0.88431260  0.86718345     0.18400
C2122       C  0.60374052  0.88992046  0.88735778    -0.10700
C2123       C  0.60399277  0.88966800  0.92521629    -0.11500
C2124       C  0.62130304  0.88376893  0.94306275     0.20000
C2125       C  0.63834035  0.87807738  0.92288082    -0.13600
C2126       C  0.63808883  0.87833127  0.88503929    -0.11900
C2127       C  0.62184963  0.88418134  0.98200418     0.01000
C2128       C  0.62282274  0.88541131  0.01449788    -0.31900
C2129       C  0.62048389  0.88419905  0.82821918     0.02300
C2130       C  0.62026756  0.88302577  0.79564641    -0.33500
H2131       H  0.59026458  0.89447638  0.87384605     0.13400
H2132       H  0.59075707  0.89415701  0.94054713     0.13200
H2133       H  0.65183112  0.87354756  0.93638267     0.13100
H2134       H  0.65134045  0.87386928  0.86972029     0.12100
C2135       C  0.62578847  0.87950868  0.44292533     0.18400
C2136       C  0.60822254  0.88467306  0.42508762    -0.10700
C2137       C  0.60801839  0.88501614  0.38729484    -0.11500
C2138       C  0.62539392  0.88024758  0.36718285     0.20000
C2139       C  0.64292584  0.87490112  0.38499037    -0.13600
C2140       C  0.64313165  0.87456156  0.42283100    -0.11900
C2141       C  0.62503496  0.88057784  0.32831139     0.01000
C2142       C  0.62399340  0.88014176  0.29580629    -0.31900
C2143       C  0.62622429  0.88008413  0.48178883     0.02300
C2144       C  0.62681793  0.88169575  0.51422024    -0.33500
H2145       H  0.59476191  0.88858841  0.44038531     0.13400
H2146       H  0.59435732  0.88906885  0.37376707     0.13200
H2147       H  0.65641060  0.87108660  0.36966636     0.13100
H2148       H  0.65681802  0.87061308  0.43639165     0.12100
C2149       C  0.62197311  0.02465153  0.24884279     0.18400
C2150       C  0.62522970  0.00978869  0.27256913    -0.10700
C2151       C  0.62536893  0.99128724  0.25969974    -0.11500
C2152       C  0.62224269  0.98741838  0.22294006     0.20000
C2153       C  0.61885029  0.00227694  0.19923522    -0.13600
C2154       C  0.61871202  0.02078836  0.21211216    -0.11900
C2155       C  0.62280116  0.96830107  0.20947149     0.01000
C2156       C  0.62352540  0.95249651  0.19737815    -0.31900
C2157       C  0.62230673  0.04378605  0.26216589     0.02300
C2158       C  0.62298094  0.05959871  0.27416215    -0.33500
H2159       H  0.62778280  0.01250607  0.30100744     0.13400
H2160       H  0.62802561  0.98001119  0.27839336     0.13200
H2161       H  0.61642189  0.99956392  0.17075701     0.13100
H2162       H  0.61618100  0.03207989  0.19339124     0.12100
C2163       C  0.76787694  0.88470120  0.07744614     0.18400
C2164       C  0.75329518  0.88034098  0.05167317    -0.10700
C2165       C  0.73272109  0.88135458  0.06095472    -0.11500
C2166       C  0.72658635  0.88673145  0.09604999     0.20000
C2167       C  0.74117483  0.89100845  0.12184748    -0.13600
C2168       C  0.76173548  0.88999045  0.11257477    -0.11900
C2169       C  0.70535353  0.88816288  0.10523907     0.01000
C2170       C  0.68741240  0.88956108  0.11115018    -0.31900
C2171       C  0.78911859  0.88422457  0.06794128     0.02300
C2172       C  0.80714041  0.88476426  0.06230186    -0.33500
H2173       H  0.75781298  0.87628950  0.02440559     0.13400
H2174       H  0.72160079  0.87805976  0.04071835     0.13200
H2175       H  0.73666491  0.89523226  0.14902349     0.13100
H2176       H  0.77284668  0.89345344  0.13272939     0.12100
loop_ 
_geom_bond_atom_site_label_1 
_geom_bond_atom_site_label_2 
_geom_bond_distance 
_geom_bond_site_symmetry_2 
_ccdc_geom_bond_type 
O1           Ni7   1.939       .  S
O1           C22   1.272       .  A
O2          Ni25   1.923       .  S
O2           C11   1.270       .  A
O3           Ni7   1.917       .  S
O3          Ni25   1.919       .  S
O3          Ni19   1.913       .  S
O3           H26   0.966       .  S
C4           O21   1.273       .  A
C4           O13   1.273       .  A
C4         C2142   1.432       .  S
O5          Ni24   1.934       .  S
O5           C11   1.270       .  A
O6          Ni24   1.910       .  S
O6            C8   1.268       .  A
Ni7          O10   1.925       .  S
Ni7          O12   1.911       .  S
C8           O18   1.272       .  A
C8         C2114   1.441       .  S
O9          Ni25   1.915       .  S
O9           C15   1.273       .  A
O10          C15   1.274       .  A
C11        C2100   1.449       .  S
O12          C14   1.269       .  A
O13         Ni24   1.923       .  S
C14          O20   1.273       .  A
C14        C2170   1.440       .  S
C15        C2128   1.435       .  S
H16          O17   0.966       .  S
O17         Ni25   1.909       .  S
O17         Ni19   1.915       .  S
O17         Ni24   1.917       .  S
O18         Ni19   1.935       .  S
Ni19         O23   1.918       .  S
Ni19         O21   1.914       .  S
O20         Ni25   1.932       .  S
C22          O23   1.269       .  A
C22        C2156   1.448       .  S
O27         Ni33   1.940       .  S
O27          C48   1.272       .  A
O28         Ni51   1.919       .  S
O28          C37   1.269       .  A
O29         Ni33   1.917       .  S
O29         Ni51   1.915       .  S
O29         Ni45   1.908       .  S
O29          H52   0.966       .  S
C30          O47   1.270       .  A
C30          O39   1.272       .  A
C30        C2130   1.435       .  S
O31         Ni50   1.932       .  S
O31          C37   1.270       .  A
O32         Ni50   1.907       .  S
O32          C34   1.268       .  A
Ni33         O36   1.924       .  S
Ni33         O38   1.911       .  S
C34          O44   1.274       .  A
C34        C2058   1.441       .  S
O35         Ni51   1.914       .  S
O35          C41   1.273       .  A
O36          C41   1.274       .  A
C37        C2044   1.446       .  S
O38          C40   1.269       .  A
O39         Ni50   1.928       .  S
C40          O46   1.273       .  A
C40        C2086   1.442       .  S
C41        C2144   1.432       .  S
H42          O43   0.966       .  S
O43         Ni51   1.916       .  S
O43         Ni45   1.920       .  S
O43         Ni50   1.923       .  S
O44         Ni45   1.940       .  S
Ni45         O49   1.914       .  S
Ni45         O47   1.909       .  S
O46         Ni51   1.934       .  S
C48          O49   1.267       .  A
C48        C2072   1.447       .  S
O53         Ni59   1.929       .  S
O53          C74   1.269   1_554  A
O54         Ni77   1.910       .  S
O54          C63   1.267       .  A
O55         Ni59   1.914       .  S
O55         Ni77   1.907       .  S
O55         Ni71   1.910   1_554  S
O55          H78   0.966       .  S
C56          O73   1.270       .  A
C56          O65   1.272       .  A
C56        C2002   1.440       .  S
O57         Ni76   1.929   1_554  S
O57          C63   1.270       .  A
O58         Ni76   1.906       .  S
O58          C60   1.268       .  A
Ni59         O62   1.922       .  S
Ni59         O64   1.909       .  S
C60          O70   1.275       .  A
C60        C1988   1.441       .  S
O61         Ni77   1.922       .  S
O61          C67   1.275       .  A
O62          C67   1.274       .  A
C63        C1976   1.439       .  S
O64          C66   1.267       .  A
O65         Ni76   1.932       .  S
C66          O72   1.271       .  A
C66        C2172   1.439       .  S
C67        C2018   1.436       .  S
H68          O69   0.966       .  S
O69         Ni77   1.924   1_556  S
O69         Ni71   1.921       .  S
O69         Ni76   1.922       .  S
O70         Ni71   1.945       .  S
Ni71         O75   1.918       .  S
Ni71         O73   1.914       .  S
O72         Ni77   1.931       .  S
C74          O75   1.269       .  A
C74        C2030   1.442       .  S
O79         Ni85   1.945       .  S
O79         C100   1.273       .  A
O80        Ni103   1.925       .  S
O80          C89   1.272       .  A
O81         Ni85   1.917       .  S
O81        Ni103   1.918       .  S
O81         Ni97   1.908       .  S
O81         H104   0.966       .  S
C82          O99   1.268       .  A
C82          O91   1.271       .  A
C82        C2016   1.436       .  S
O83        Ni102   1.929       .  S
O83          C89   1.269       .  A
O84        Ni102   1.904       .  S
O84          C86   1.268       .  A
Ni85         O88   1.928       .  S
Ni85         O90   1.913       .  S
C86          O96   1.275       .  A
C86        C1946   1.439       .  S
O87        Ni103   1.922       .  S
O87          C93   1.275       .  A
O88          C93   1.275       .  A
C89        C1932   1.449       .  S
O90          C92   1.269       .  A
O91        Ni102   1.931       .  S
C92          O98   1.273       .  A
C92        C2088   1.443       .  S
C93        C2004   1.440       .  S
H94          O95   0.966       .  S
O95        Ni103   1.921       .  S
O95         Ni97   1.923       .  S
O95        Ni102   1.924       .  S
O96         Ni97   1.947       .  S
Ni97        O101   1.922       .  S
Ni97         O99   1.908       .  S
O98        Ni103   1.935       .  S
C100        O101   1.269       .  A
C100       C1960   1.456       .  S
O105       Ni111   1.941       .  S
O105        C126   1.272       .  A
O106       Ni129   1.930       .  S
O106        C115   1.271       .  A
O107       Ni111   1.920       .  S
O107       Ni129   1.925       .  S
O107       Ni123   1.914       .  S
O107        H130   0.966       .  S
C108        O125   1.273       .  A
C108        O117   1.272       .  A
C108       C1890   1.433       .  S
O109       Ni128   1.933       .  S
O109        C115   1.269       .  A
O110       Ni128   1.908       .  S
O110        C112   1.268       .  A
Ni111       O114   1.927       .  S
Ni111       O116   1.909       .  S
C112        O122   1.271       .  A
C112       C1862   1.437       .  S
O113       Ni129   1.914       .  S
O113        C119   1.272       .  A
O114        C119   1.274       .  A
C115       C1876   1.453       .  S
O116        C118   1.269       .  A
O117       Ni128   1.920       .  S
C118        O124   1.274       .  A
C118       C1920   1.441       .  S
C119       C1904   1.437       .  S
H120        O121   0.966       .  S
O121       Ni129   1.912       .  S
O121       Ni123   1.922       .  S
O121       Ni128   1.921       .  S
O122       Ni123   1.930       .  S
Ni123       O127   1.927       .  S
Ni123       O125   1.916       .  S
O124       Ni129   1.938       .  S
C126        O127   1.271       .  A
C126       C1962   1.457       .  S
O131       Ni137   1.928       .  S
O131        C152   1.269       .  A
O132       Ni155   1.904       .  S
O132        C141   1.264       .  A
O133       Ni137   1.917       .  S
O133       Ni155   1.907       .  S
O133       Ni149   1.914       .  S
O133        H156   0.966       .  S
C134        O151   1.274   1_554  A
C134        O143   1.273   1_554  A
C134       C1906   1.437       .  S
O135       Ni154   1.931       .  S
O135        C141   1.269       .  A
O136       Ni154   1.906       .  S
O136        C138   1.267       .  A
Ni137       O140   1.925       .  S
Ni137       O142   1.910       .  S
C138        O148   1.271       .  A
C138       C1820   1.436       .  S
O139       Ni155   1.913       .  S
O139        C145   1.272       .  A
O140        C145   1.274       .  A
C141       C1836   1.434       .  S
O142        C144   1.267       .  A
O143       Ni154   1.924       .  S
C144        O150   1.270       .  A
C144       C1848   1.439       .  S
C145       C1892   1.434       .  S
H146        O147   0.966       .  S
O147       Ni155   1.915       .  S
O147       Ni149   1.917       .  S
O147       Ni154   1.920       .  S
O148       Ni149   1.930       .  S
Ni149       O153   1.917       .  S
Ni149       O151   1.918       .  S
O150       Ni155   1.928       .  S
C152        O153   1.269       .  A
C152       C2032   1.441       .  S
O157       Ni163   1.941       .  S
O157        C178   1.272       .  A
O158       Ni181   1.923       .  S
O158        C167   1.269       .  A
O159       Ni163   1.919       .  S
O159       Ni181   1.920       .  S
O159       Ni175   1.911       .  S
O159        H182   0.966       .  S
C160        O177   1.271       .  A
C160        O169   1.272       .  A
C160       C1806   1.433       .  S
O161       Ni180   1.928       .  S
O161        C167   1.268       .  A
O162       Ni180   1.908       .  S
O162        C164   1.267       .  A
Ni163       O166   1.926       .  S
Ni163       O168   1.910       .  S
C164        O174   1.271       .  A
C164       C1764   1.439       .  S
O165       Ni181   1.914       .  S
O165        C171   1.273       .  A
O166        C171   1.274       .  A
C167       C1778   1.445       .  S
O168        C170   1.269       .  A
O169       Ni180   1.922       .  S
C170        O176   1.273       .  A
C170       C1918   1.440       .  S
C171       C1792   1.434       .  S
H172        O173   0.966       .  S
O173       Ni181   1.914       .  S
O173       Ni175   1.917       .  S
O173       Ni180   1.922       .  S
O174       Ni175   1.931       .  S
Ni175       O179   1.912       .  S
Ni175       O177   1.912       .  S
O176       Ni181   1.935       .  S
C178        O179   1.266       .  A
C178       C2158   1.447       .  S
O183       Ni189   1.939       .  S
O183        C204   1.271       .  A
O184       Ni207   1.926       .  S
O184        C193   1.270       .  A
O185       Ni189   1.920       .  S
O185       Ni207   1.922       .  S
O185       Ni201   1.912       .  S
O185        H208   0.966       .  S
C186        O203   1.271       .  A
C186        O195   1.273       .  A
C186       C1794   1.434       .  S
O187       Ni206   1.929       .  S
O187        C193   1.268       .  A
O188       Ni206   1.907       .  S
O188        C190   1.267       .  A
Ni189       O192   1.923       .  S
Ni189       O194   1.908       .  S
C190        O200   1.272       .  A
C190       C1736   1.440       .  S
O191       Ni207   1.915       .  S
O191        C197   1.273       .  A
O192        C197   1.273       .  A
C193       C1750   1.447       .  S
O194        C196   1.268       .  A
O195       Ni206   1.925       .  S
C196        O202   1.272       .  A
C196       C1850   1.438       .  S
C197       C1808   1.433       .  S
H198        O199   0.966       .  S
O199       Ni207   1.913       .  S
O199       Ni201   1.918       .  S
O199       Ni206   1.922       .  S
O200       Ni201   1.936       .  S
Ni201       O205   1.916       .  S
Ni201       O203   1.911       .  S
O202       Ni207   1.933       .  S
C204        O205   1.267       .  A
C204       C2074   1.447       .  S
O209       Ni215   1.932       .  S
O209        C230   1.270       .  A
O210       Ni233   1.923       .  S
O210        C219   1.270       .  A
O211       Ni215   1.920       .  S
O211       Ni233   1.922       .  S
O211       Ni227   1.917       .  S
O211        H234   0.966       .  S
C212        O229   1.277       .  A
C212        O221   1.274       .  A
C212       C1694   1.435       .  S
O213       Ni232   1.939       .  S
O213        C219   1.272       .  A
O214       Ni232   1.911       .  S
O214        C216   1.268       .  A
Ni215       O218   1.924   1_554  S
Ni215       O220   1.909       .  S
C216        O226   1.274       .  A
C216       C1724   1.444       .  S
O217       Ni233   1.910   1_556  S
O217        C223   1.271       .  A
O218        C223   1.272       .  A
C219       C1708   1.453       .  S
O220        C222   1.268       .  A
O221       Ni232   1.920       .  S
C222        O228   1.274       .  A
C222       C1990   1.442       .  S
C223       C1682   1.432       .  S
H224        O225   0.966       .  S
O225       Ni233   1.908       .  S
O225       Ni227   1.918       .  S
O225       Ni232   1.914       .  S
O226       Ni227   1.938       .  S
Ni227       O231   1.932       .  S
Ni227       O229   1.924       .  S
O228       Ni233   1.940       .  S
C230        O231   1.273       .  A
C230       C1666   1.454       .  S
O235       Ni241   1.933       .  S
O235        C256   1.269       .  A
O236       Ni259   1.922       .  S
O236        C245   1.269       .  A
O237       Ni241   1.919       .  S
O237       Ni259   1.918       .  S
O237       Ni253   1.912       .  S
O237        H260   0.966       .  S
C238        O255   1.274       .  A
C238        O247   1.274       .  A
C238       C1680   1.434       .  S
O239       Ni258   1.942       .  S
O239        C245   1.273       .  A
O240       Ni258   1.913       .  S
O240        C242   1.270       .  A
Ni241       O244   1.924       .  S
Ni241       O246   1.909       .  S
C242        O252   1.276       .  A
C242       C1652   1.446       .  S
O243       Ni259   1.915       .  S
O243        C249   1.273       .  A
O244        C249   1.274       .  A
C245       C1638   1.454       .  S
O246        C248   1.267       .  A
O247       Ni258   1.923       .  S
C248        O254   1.271       .  A
C248       C1948   1.439       .  S
C249       C1696   1.434       .  S
H250        O251   0.966       .  S
O251       Ni259   1.913       .  S
O251       Ni253   1.922       .  S
O251       Ni258   1.915       .  S
O252       Ni253   1.941       .  S
Ni253       O257   1.931       .  S
Ni253       O255   1.918       .  S
O254       Ni259   1.933       .  S
C256        O257   1.272       .  A
C256       C1624   1.452       .  S
O261       Ni267   1.928       .  S
O261        C282   1.269       .  A
O262       Ni285   1.913       .  S
O262        C271   1.267       .  A
O263       Ni267   1.917       .  S
O263       Ni285   1.911       .  S
O263       Ni279   1.914       .  S
O263        H286   0.966       .  S
C264        O281   1.276       .  A
C264        O273   1.275       .  A
C264       C1582   1.439       .  S
O265       Ni284   1.938       .  S
O265        C271   1.272       .  A
O266       Ni284   1.912       .  S
O266        C268   1.268       .  A
Ni267       O270   1.925       .  S
Ni267       O272   1.911       .  S
C268        O278   1.273       .  A
C268       C1722   1.444       .  S
O269       Ni285   1.914       .  S
O269        C275   1.273       .  A
O270        C275   1.274       .  A
C271       C1610   1.445       .  S
O272        C274   1.268       .  A
O273       Ni284   1.926       .  S
C274        O280   1.271       .  A
C274       C2116   1.442       .  S
C275       C1598   1.433       .  S
H276        O277   0.966       .  S
O277       Ni285   1.912       .  S
O277       Ni279   1.914       .  S
O277       Ni284   1.913       .  S
O278       Ni279   1.936       .  S
Ni279       O283   1.919       .  S
Ni279       O281   1.923       .  S
O280       Ni285   1.934       .  S
C282        O283   1.269       .  A
C282       C1568   1.442       .  S
O287       Ni293   1.930       .  S
O287        C308   1.269       .  A
O288       Ni311   1.914       .  S
O288        C297   1.267       .  A
O289       Ni293   1.919       .  S
O289       Ni311   1.914       .  S
O289       Ni305   1.912       .  S
O289        H312   0.966       .  S
C290        O307   1.274       .  A
C290        O299   1.274       .  A
C290       C1596   1.432       .  S
O291       Ni310   1.936       .  S
O291        C297   1.271       .  A
O292       Ni310   1.911       .  S
O292        C294   1.269       .  A
Ni293       O296   1.928       .  S
Ni293       O298   1.911       .  S
C294        O304   1.276       .  A
C294       C1654   1.446       .  S
O295       Ni311   1.918       .  S
O295        C301   1.274       .  A
O296        C301   1.275       .  A
C297       C1554   1.444       .  S
O298        C300   1.267       .  A
O299       Ni310   1.923       .  S
C300        O306   1.270       .  A
C300       C2060   1.441       .  S
C301       C1584   1.439       .  S
H302        O303   0.966       .  S
O303       Ni311   1.913       .  S
O303       Ni305   1.916       .  S
O303       Ni310   1.912       .  S
O304       Ni305   1.941       .  S
Ni305       O309   1.925       .  S
Ni305       O307   1.915       .  S
O306       Ni311   1.931       .  S
C308        O309   1.271       .  A
C308       C1542   1.446       .  S
O313       Ni319   1.931       .  S
O313        C334   1.270       .  A
O314       Ni337   1.915       .  S
O314        C323   1.267       .  A
O315       Ni319   1.925       .  S
O315       Ni337   1.922       .  S
O315       Ni331   1.920       .  S
O315        H338   0.966       .  S
C316        O333   1.272       .  A
C316        O325   1.273       .  A
C316       C1498   1.437       .  S
O317       Ni336   1.937       .  S
O317        C323   1.271       .  A
O318       Ni336   1.911       .  S
O318        C320   1.269       .  A
Ni319       O322   1.928       .  S
Ni319       O324   1.905       .  S
C320        O330   1.273       .  A
C320       C1526   1.442       .  S
O321       Ni337   1.911       .  S
O321        C327   1.269       .  A
O322        C327   1.271       .  A
C323       C1612   1.446       .  S
O324        C326   1.268       .  A
O325       Ni336   1.925       .  S
C326        O332   1.274       .  A
C326       C1766   1.439       .  S
C327       C1512   1.437       .  S
H328        O329   0.966       .  S
O329       Ni337   1.910       .  S
O329       Ni331   1.916       .  S
O329       Ni336   1.921       .  S
O330       Ni331   1.935       .  S
Ni331       O335   1.917       .  S
Ni331       O333   1.917       .  S
O332       Ni337   1.941       .  S
C334        O335   1.269       .  A
C334       C1486   1.445       .  S
O339       Ni345   1.930       .  S
O339        C360   1.270       .  A
O340       Ni363   1.911       .  S
O340        C349   1.266       .  A
O341       Ni345   1.922       .  S
O341       Ni363   1.916       .  S
O341       Ni357   1.920       .  S
O341        H364   0.966       .  S
C342        O359   1.273       .  A
C342        O351   1.273       .  A
C342       C1514   1.438       .  S
O343       Ni362   1.935       .  S
O343        C349   1.270       .  A
O344       Ni362   1.907       .  S
O344        C346   1.267       .  A
Ni345       O348   1.935       .  S
Ni345       O350   1.906       .  S
C346        O356   1.271       .  A
C346       C1470   1.437       .  S
O347       Ni363   1.906       .  S
O347        C353   1.268       .  A
O348        C353   1.272       .  A
C349       C1556   1.442       .  S
O350        C352   1.268       .  A
O351       Ni362   1.925       .  S
C352        O358   1.275       .  A
C352       C1738   1.440       .  S
C353       C1500   1.436       .  S
H354        O355   0.966       .  S
O355       Ni363   1.909       .  S
O355       Ni357   1.915       .  S
O355       Ni362   1.921       .  S
O356       Ni357   1.930       .  S
Ni357       O361   1.912       .  S
Ni357       O359   1.918       .  S
O358       Ni363   1.947       .  S
C360        O361   1.268       .  A
C360       C1456   1.441       .  S
O365       Ni371   1.931       .  S
O365        C386   1.269       .  A
O366       Ni389   1.927       .  S
O366        C375   1.272       .  A
O367       Ni371   1.918       .  S
O367       Ni389   1.920       .  S
O367       Ni383   1.914       .  S
O367        H390   0.966       .  S
C368        O385   1.275       .  A
C368        O377   1.274       .  A
C368       C1442   1.435       .  S
O369       Ni388   1.938       .  S
O369        C375   1.272       .  A
O370       Ni388   1.911       .  S
O370        C372   1.269       .  A
Ni371       O374   1.922       .  S
Ni371       O376   1.908       .  S
C372        O382   1.273       .  A
C372       C1528   1.442       .  S
O373       Ni389   1.921       .  S
O373        C379   1.275       .  A
O374        C379   1.273       .  A
C375       C1640   1.455       .  S
O376        C378   1.268       .  A
O377       Ni388   1.921       .  S
C378        O384   1.272       .  A
C378       C1864   1.439       .  S
C379       C1428   1.437       .  S
H380        O381   0.966       .  S
O381       Ni389   1.914       .  S
O381       Ni383   1.920       .  S
O381       Ni388   1.914       .  S
O382       Ni383   1.934       .  S
Ni383       O387   1.930       .  S
Ni383       O385   1.923       .  S
O384       Ni389   1.936       .  S
C386        O387   1.272       .  A
C386       C1414   1.452       .  S
O391       Ni397   1.928       .  S
O391        C412   1.269       .  A
O392       Ni415   1.920       .  S
O392        C401   1.268       .  A
O393       Ni397   1.926       .  S
O393       Ni415   1.925       .  S
O393       Ni409   1.921       .  S
O393        H416   0.966       .  S
C394        O411   1.274       .  A
C394        O403   1.273       .  A
C394       C1430   1.437       .  S
O395       Ni414   1.939       .  S
O395        C401   1.271       .  A
O396       Ni414   1.906       .  S
O396        C398   1.268       .  A
Ni397       O400   1.925   1_556  S
Ni397       O402   1.904       .  S
C398        O408   1.272       .  A
C398       C1472   1.437       .  S
O399       Ni415   1.909   1_554  S
O399        C405   1.268       .  A
O400        C405   1.270       .  A
C401       C1710   1.452       .  S
O402        C404   1.268       .  A
O403       Ni414   1.923       .  S
C404        O410   1.274       .  A
C404       C1822   1.436       .  S
C405       C1444   1.434       .  S
H406        O407   0.966       .  S
O407       Ni415   1.909       .  S
O407       Ni409   1.922       .  S
O407       Ni414   1.921       .  S
O408       Ni409   1.933       .  S
Ni409       O413   1.924       .  S
Ni409       O411   1.920       .  S
O410       Ni415   1.940       .  S
C412        O413   1.270       .  A
C412       C1400   1.447       .  S
O417       Ni423   1.941       .  S
O417        C438   1.273       .  A
O418       Ni441   1.906       .  S
O418        C427   1.267       .  A
O419       Ni423   1.916       .  S
O419       Ni441   1.909       .  S
O419       Ni435   1.912       .  S
O419        H442   0.966       .  S
C420        O437   1.274       .  A
C420        O429   1.276       .  A
C420       C1344   1.434       .  S
O421       Ni440   1.930       .  S
O421        C427   1.271       .  A
O422       Ni440   1.913       .  S
O422        C424   1.268       .  A
Ni423       O426   1.933       .  S
Ni423       O428   1.917       .  S
C424        O434   1.275       .  A
C424       C1386   1.452       .  S
O425       Ni441   1.916       .  S
O425        C431   1.273       .  A
O426        C431   1.276       .  A
C427       C1372   1.433       .  S
O428        C430   1.269       .  A
O429       Ni440   1.926       .  S
C430        O436   1.275       .  A
C430       C1878   1.454       .  S
C431       C1358   1.440       .  S
H432        O433   0.966       .  S
O433       Ni441   1.909       .  S
O433       Ni435   1.899       .  S
O433       Ni440   1.908       .  S
O434       Ni435   1.946       .  S
Ni435       O439   1.898       .  S
Ni435       O437   1.915       .  S
O436       Ni441   1.946       .  S
C438        O439   1.265       .  A
C438       C1330   1.435       .  S
O443       Ni449   1.931       .  S
O443        C464   1.270       .  A
O444       Ni467   1.909       .  S
O444        C453   1.267       .  A
O445       Ni449   1.911       .  S
O445       Ni467   1.906       .  S
O445       Ni461   1.914       .  S
O445        H468   0.966       .  S
C446        O463   1.275       .  A
C446        O455   1.275       .  A
C446       C1346   1.435       .  S
O447       Ni466   1.929       .  S
O447        C453   1.270       .  A
O448       Ni466   1.913       .  S
O448        C450   1.268       .  A
Ni449       O452   1.927       .  S
Ni449       O454   1.912       .  S
C450        O460   1.272       .  A
C450       C1302   1.446       .  S
O451       Ni467   1.921       .  S
O451        C457   1.275       .  A
O452        C457   1.276       .  A
C453       C1316   1.436       .  S
O454        C456   1.268       .  A
O455       Ni466   1.923       .  S
C456        O462   1.273       .  A
C456       C1288   1.445       .  S
C457       C1360   1.438   1_556  S
H458        O459   0.966       .  S
O459       Ni467   1.912       .  S
O459       Ni461   1.904       .  S
O459       Ni466   1.910       .  S
O460       Ni461   1.937       .  S
Ni461       O465   1.905       .  S
Ni461       O463   1.922       .  S
O462       Ni467   1.938       .  S
C464        O465   1.266       .  A
C464       C1834   1.433       .  S
O469       Ni475   1.931   1_554  S
O469        C490   1.270       .  A
O470       Ni493   1.912       .  S
O470        C479   1.266       .  A
O471       Ni475   1.925       .  S
O471       Ni493   1.921       .  S
O471       Ni487   1.925   1_556  S
O471        H494   0.966       .  S
C472        O489   1.275       .  A
C472        O481   1.273       .  A
C472       C1260   1.436       .  S
O473       Ni492   1.928       .  S
O473        C479   1.269   1_554  A
O474       Ni492   1.908       .  S
O474        C476   1.267       .  A
Ni475       O478   1.932       .  S
Ni475       O480   1.905       .  S
C476        O486   1.271       .  A
C476       C1276   1.438       .  S
O477       Ni493   1.911       .  S
O477        C483   1.269       .  A
O478        C483   1.272       .  A
C479       C1318   1.437       .  S
O480        C482   1.268       .  A
O481       Ni492   1.920       .  S
C482        O488   1.273       .  A
C482       C1232   1.435       .  S
C483       C1248   1.440       .  S
H484        O485   0.966       .  S
O485       Ni493   1.908   1_554  S
O485       Ni487   1.908       .  S
O485       Ni492   1.916       .  S
O486       Ni487   1.930       .  S
Ni487       O491   1.909       .  S
Ni487       O489   1.923       .  S
O488       Ni493   1.936       .  S
C490        O491   1.267       .  A
C490       C1974   1.440       .  S
O495       Ni501   1.928       .  S
O495        C516   1.270       .  A
O496       Ni519   1.918       .  S
O496        C505   1.268       .  A
O497       Ni501   1.926       .  S
O497       Ni519   1.921       .  S
O497       Ni513   1.926       .  S
O497        H520   0.966       .  S
C498        O515   1.272       .  A
C498        O507   1.273       .  A
C498       C1246   1.439       .  S
O499       Ni518   1.941       .  S
O499        C505   1.272       .  A
O500       Ni518   1.908       .  S
O500        C502   1.269       .  A
Ni501       O504   1.934       .  S
Ni501       O506   1.903       .  S
C502        O512   1.273       .  A
C502       C1218   1.438       .  S
O503       Ni519   1.906       .  S
O503        C509   1.266       .  A
O504        C509   1.270       .  A
C505       C1388   1.452       .  S
O506        C508   1.269       .  A
O507       Ni518   1.927       .  S
C508        O514   1.276       .  A
C508       C1204   1.434       .  S
C509       C1262   1.435       .  S
H510        O511   0.966       .  S
O511       Ni519   1.909       .  S
O511       Ni513   1.920       .  S
O511       Ni518   1.921       .  S
O512       Ni513   1.934       .  S
Ni513       O517   1.923       .  S
Ni513       O515   1.917       .  S
O514       Ni519   1.947       .  S
C516        O517   1.271       .  A
C516       C1934   1.449       .  S
O521       Ni527   1.931       .  S
O521        C542   1.269       .  A
O522       Ni545   1.917       .  S
O522        C531   1.267       .  A
O523       Ni527   1.928       .  S
O523       Ni545   1.923       .  S
O523       Ni539   1.919       .  S
O523        H546   0.966       .  S
C524        O541   1.270       .  A
C524        O533   1.271       .  A
C524       C1162   1.433       .  S
O525       Ni544   1.935       .  S
O525        C531   1.270       .  A
O526       Ni544   1.908       .  S
O526        C528   1.269       .  A
Ni527       O530   1.930       .  S
Ni527       O532   1.906       .  S
C528        O538   1.274       .  A
C528       C1274   1.439       .  S
O529       Ni545   1.906       .  S
O529        C535   1.268       .  A
O530        C535   1.271       .  A
C531       C1190   1.448       .  S
O532        C534   1.268       .  A
O533       Ni544   1.923       .  S
C534        O540   1.272       .  A
C534       C1150   1.435       .  S
C535       C1178   1.434       .  S
H536        O537   0.966       .  S
O537       Ni545   1.912       .  S
O537       Ni539   1.923       .  S
O537       Ni544   1.925       .  S
O538       Ni539   1.938       .  S
Ni539       O543   1.925       .  S
Ni539       O541   1.911       .  S
O540       Ni545   1.936       .  S
C542        O543   1.270       .  A
C542       C2102   1.450       .  S
O547       Ni553   1.930       .  S
O547        C568   1.269       .  A
O548       Ni571   1.914       .  S
O548        C557   1.267       .  A
O549       Ni553   1.922       .  S
O549       Ni571   1.919       .  S
O549       Ni565   1.915       .  S
O549        H572   0.966       .  S
C550        O567   1.273       .  A
C550        O559   1.273       .  A
C550       C1176   1.434       .  S
O551       Ni570   1.940       .  S
O551        C557   1.272       .  A
O552       Ni570   1.910       .  S
O552        C554   1.269       .  A
Ni553       O556   1.922       .  S
Ni553       O558   1.905       .  S
C554        O564   1.272       .  A
C554       C1220   1.439       .  S
O555       Ni571   1.911       .  S
O555        C561   1.270       .  A
O556        C561   1.272       .  A
C557       C1134   1.448       .  S
O558        C560   1.267       .  A
O559       Ni570   1.925       .  S
C560        O566   1.271       .  A
C560       C1122   1.436       .  S
C561       C1164   1.433       .  S
H562        O563   0.966       .  S
O563       Ni571   1.910       .  S
O563       Ni565   1.919       .  S
O563       Ni570   1.920       .  S
O564       Ni565   1.934       .  S
Ni565       O569   1.923       .  S
Ni565       O567   1.915       .  S
O566       Ni571   1.931       .  S
C568        O569   1.270       .  A
C568       C2046   1.446       .  S
O573       Ni579   1.926       .  S
O573        C594   1.269       .  A
O574       Ni597   1.914       .  S
O574        C583   1.267       .  A
O575       Ni579   1.928       .  S
O575       Ni597   1.921       .  S
O575       Ni591   1.923       .  S
O575        H598   0.966       .  S
C576        O593   1.269       .  A
C576        O585   1.271       .  A
C576       C1094   1.438       .  S
O577       Ni596   1.936       .  S
O577        C583   1.271       .  A
O578       Ni596   1.906       .  S
O578        C580   1.269       .  A
Ni579       O582   1.929       .  S
Ni579       O584   1.902       .  S
C580        O590   1.273       .  A
C580       C1374   1.433       .  S
O581       Ni597   1.909       .  S
O581        C587   1.267       .  A
O582        C587   1.269       .  A
C583       C1192   1.447       .  S
O584        C586   1.268       .  A
O585       Ni596   1.933       .  S
C586        O592   1.276       .  A
C586       C1078   1.436       .  S
C587       C1106   1.437       .  S
H588        O589   0.966       .  S
O589       Ni597   1.916       .  S
O589       Ni591   1.920       .  S
O589       Ni596   1.927       .  S
O590       Ni591   1.937       .  S
Ni591       O595   1.917       .  S
Ni591       O593   1.911       .  S
O592       Ni597   1.943       .  S
C594        O595   1.268       .  A
C594       C1780   1.444       .  S
O599       Ni605   1.935       .  S
O599        C620   1.270       .  A
O600       Ni623   1.917       .  S
O600        C609   1.269       .  A
O601       Ni605   1.918       .  S
O601       Ni623   1.917       .  S
O601       Ni617   1.914       .  S
O601        H624   0.966       .  S
C602        O619   1.274       .  A
C602        O611   1.276       .  A
C602       C1108   1.436       .  S
O603       Ni622   1.940       .  S
O603        C609   1.273       .  A
O604       Ni622   1.913       .  S
O604        C606   1.269       .  A
Ni605       O608   1.927       .  S
Ni605       O610   1.907       .  S
C606        O616   1.273       .  A
C606       C1304   1.445       .  S
O607       Ni623   1.915       .  S
O607        C613   1.273       .  A
O608        C613   1.274       .  A
C609       C1136   1.448       .  S
O610        C612   1.267       .  A
O611       Ni622   1.928       .  S
C612        O618   1.273       .  A
C612       C1064   1.439       .  S
C613       C1092   1.437       .  S
H614        O615   0.966       .  S
O615       Ni623   1.909       .  S
O615       Ni617   1.913       .  S
O615       Ni622   1.914       .  S
O616       Ni617   1.936       .  S
Ni617       O621   1.920       .  S
Ni617       O619   1.917       .  S
O618       Ni623   1.936       .  S
C620        O621   1.269       .  A
C620       C1752   1.447       .  S
O625       Ni631   1.936       .  S
O625        C646   1.273       .  A
O626       Ni649   1.904       .  S
O626        C635   1.266       .  A
O627       Ni631   1.912       .  S
O627       Ni649   1.904       .  S
O627       Ni643   1.916       .  S
O627        H650   0.966       .  S
C628        O645   1.277       .  A
C628        O637   1.277       .  A
C628       C1024   1.444       .  S
O629       Ni648   1.932       .  S
O629        C635   1.272       .  A
O630       Ni648   1.918       .  S
O630        C632   1.269       .  A
Ni631       O634   1.932   1_554  S
Ni631       O636   1.918       .  S
C632        O642   1.274       .  A
C632       C1668   1.455       .  S
O633       Ni649   1.924   1_556  S
O633        C639   1.276       .  A
O634        C639   1.277       .  A
C635       C1234   1.433       .  S
O636        C638   1.269       .  A
O637       Ni648   1.931       .  S
C638        O644   1.276       .  A
C638       C1052   1.455       .  S
C639       C1010   1.444       .  S
H640        O641   0.966       .  S
O641       Ni649   1.915       .  S
O641       Ni643   1.902       .  S
O641       Ni648   1.913       .  S
O642       Ni643   1.945       .  S
Ni643       O647   1.902       .  S
Ni643       O645   1.925       .  S
O644       Ni649   1.947       .  S
C646        O647   1.266       .  A
C646       C1036   1.434       .  S
O651       Ni657   1.936       .  S
O651        C672   1.273       .  A
O652       Ni675   1.904       .  S
O652        C661   1.267       .  A
O653       Ni657   1.913       .  S
O653       Ni675   1.904       .  S
O653       Ni669   1.916       .  S
O653        H676   0.966       .  S
C654        O671   1.276       .  A
C654        O663   1.276       .  A
C654       C1008   1.444       .  S
O655       Ni674   1.932       .  S
O655        C661   1.271       .  A
O656       Ni674   1.916       .  S
O656        C658   1.268       .  A
Ni657       O660   1.931       .  S
Ni657       O662   1.918       .  S
C658        O668   1.274       .  A
C658       C1626   1.453       .  S
O659       Ni675   1.924       .  S
O659        C665   1.276       .  A
O660        C665   1.276       .  A
C661       C1206   1.434       .  S
O662        C664   1.269       .  A
O663       Ni674   1.929       .  S
C664        O670   1.276       .  A
C664        C994   1.456       .  S
C665       C1022   1.444       .  S
H666        O667   0.966       .  S
O667       Ni675   1.915       .  S
O667       Ni669   1.903       .  S
O667       Ni674   1.913       .  S
O668       Ni669   1.945       .  S
Ni669       O673   1.899       .  S
Ni669       O671   1.927       .  S
O670       Ni675   1.948       .  S
C672        O673   1.265       .  A
C672        C982   1.431       .  S
O677       Ni683   1.937       .  S
O677        C698   1.271       .  A
O678       Ni701   1.926       .  S
O678        C687   1.271       .  A
O679       Ni683   1.919       .  S
O679       Ni701   1.918       .  S
O679       Ni695   1.911       .  S
O679        H702   0.966       .  S
C680        O697   1.269       .  A
C680        O689   1.270       .  A
C680        C940   1.439       .  S
O681       Ni700   1.930       .  S
O681        C687   1.270       .  A
O682       Ni700   1.903       .  S
O682        C684   1.270       .  A
Ni683       O686   1.926       .  S
Ni683       O688   1.907       .  S
C684        O694   1.277       .  A
C684       C1332   1.434       .  S
O685       Ni701   1.921       .  S
O685        C691   1.274       .  A
O686        C691   1.274       .  A
C687       C1416   1.452       .  S
O688        C690   1.268       .  A
O689       Ni700   1.932       .  S
C690        O696   1.271       .  A
C690        C966   1.434       .  S
C691        C952   1.440       .  S
H692        O693   0.966       .  S
O693       Ni701   1.931       .  S
O693       Ni695   1.926       .  S
O693       Ni700   1.924       .  S
O694       Ni695   1.948       .  S
Ni695       O699   1.930       .  S
Ni695       O697   1.914       .  S
O696       Ni701   1.926       .  S
C698        O699   1.272       .  A
C698        C996   1.456       .  S
O703       Ni709   1.936       .  S
O703        C724   1.271       .  A
O704       Ni727   1.918       .  S
O704        C713   1.269       .  A
O705       Ni709   1.919       .  S
O705       Ni727   1.915       .  S
O705       Ni721   1.907       .  S
O705        H728   0.966       .  S
C706        O723   1.267       .  A
C706        O715   1.270       .  A
C706        C954   1.441       .  S
O707       Ni726   1.931   1_556  S
O707        C713   1.270       .  A
O708       Ni726   1.905   1_556  S
O708        C710   1.270       .  A
Ni709       O712   1.929       .  S
Ni709       O714   1.904       .  S
C710        O720   1.280       .  A
C710       C1290   1.442       .  S
O711       Ni727   1.915       .  S
O711        C717   1.272       .  A
O712        C717   1.274       .  A
C713       C1402   1.448       .  S
O714        C716   1.267       .  A
O715       Ni726   1.937       .  S
C716        O722   1.272       .  A
C716        C926   1.435       .  S
C717        C938   1.438       .  S
H718        O719   0.966       .  S
O719       Ni727   1.930       .  S
O719       Ni721   1.924       .  S
O719       Ni726   1.927   1_556  S
O720       Ni721   1.955       .  S
Ni721       O725   1.927       .  S
Ni721       O723   1.910   1_556  S
O722       Ni727   1.932       .  S
C724        O725   1.271       .  A
C724       C1050   1.453       .  S
O729       Ni735   1.937       .  S
O729        C750   1.270       .  A
O730       Ni753   1.920       .  S
O730        C739   1.270       .  A
O731       Ni735   1.926       .  S
O731       Ni753   1.921       .  S
O731       Ni747   1.912       .  S
O731        H754   0.966       .  S
C732        O749   1.265       .  A
C732        O741   1.269       .  A
C732        C896   1.432       .  S
O733       Ni752   1.923       .  S
O733        C739   1.268       .  A
O734       Ni752   1.903       .  S
O734        C736   1.267       .  A
Ni735       O738   1.925       .  S
Ni735       O740   1.904       .  S
C736        O746   1.274       .  A
C736       C1080   1.436       .  S
O737       Ni753   1.912       .  S
O737        C743   1.271       .  A
O738        C743   1.271       .  A
C739       C1484   1.443       .  S
O740        C742   1.268       .  A
O741       Ni752   1.928       .  S
C742        O748   1.273       .  A
C742        C968   1.434       .  S
C743        C884   1.435       .  S
H744        O745   0.966       .  S
O745       Ni753   1.922       .  S
O745       Ni747   1.918       .  S
O745       Ni752   1.927       .  S
O746       Ni747   1.941       .  S
Ni747       O751   1.907       .  S
Ni747       O749   1.904       .  S
O748       Ni753   1.936       .  S
C750        O751   1.264       .  A
C750        C910   1.442       .  S
O755       Ni761   1.936       .  S
O755        C776   1.271       .  A
O756       Ni779   1.918       .  S
O756        C765   1.268       .  A
O757       Ni761   1.917       .  S
O757       Ni779   1.916       .  S
O757       Ni773   1.912       .  S
O757        H780   0.966       .  S
C758        O775   1.274       .  A
C758        O767   1.273       .  A
C758        C882   1.435       .  S
O759       Ni778   1.928       .  S
O759        C765   1.268       .  A
O760       Ni778   1.907       .  S
O760        C762   1.267       .  A
Ni761       O764   1.924       .  S
Ni761       O766   1.908       .  S
C762        O772   1.271       .  A
C762       C1066   1.437       .  S
O763       Ni779   1.913       .  S
O763        C769   1.273       .  A
O764        C769   1.274       .  A
C765       C1458   1.441       .  S
O766        C768   1.268       .  A
O767       Ni778   1.921       .  S
C768        O774   1.270       .  A
C768        C924   1.435       .  S
C769        C898   1.432       .  S
H770        O771   0.966       .  S
O771       Ni779   1.912       .  S
O771       Ni773   1.913       .  S
O771       Ni778   1.916       .  S
O772       Ni773   1.929       .  S
Ni773       O777   1.914       .  S
Ni773       O775   1.918       .  S
O774       Ni779   1.927       .  S
C776        O777   1.268       .  A
C776        C868   1.445       .  S
O781       Ni787   1.932       .  S
O781        C802   1.270       .  A
O782       Ni805   1.908       .  S
O782        C791   1.266       .  A
O783       Ni787   1.922       .  S
O783       Ni805   1.911       .  S
O783       Ni799   1.907       .  S
O783        H806   0.966       .  S
C784        O801   1.266       .  A
C784        O793   1.271       .  A
C784        C854   1.439       .  S
O785       Ni804   1.932       .  S
O785        C791   1.270       .  A
O786       Ni804   1.904       .  S
O786        C788   1.270       .  A
Ni787       O790   1.927       .  S
Ni787       O792   1.905       .  S
C788        O798   1.277       .  A
C788       C1148   1.436       .  S
O789       Ni805   1.910       .  S
O789        C795   1.270       .  A
O790        C795   1.273       .  A
C791       C1570   1.442       .  S
O792        C794   1.267       .  A
O793       Ni804   1.938       .  S
C794        O800   1.271       .  A
C794       C1038   1.434       .  S
C795        C840   1.435       .  S
H796        O797   0.966       .  S
O797       Ni805   1.927       .  S
O797       Ni799   1.919       .  S
O797       Ni804   1.927       .  S
O798       Ni799   1.947       .  S
Ni799       O803   1.914       .  S
Ni799       O801   1.907       .  S
O800       Ni805   1.929       .  S
C802        O803   1.267       .  A
C802        C912   1.442       .  S
O807       Ni813   1.934       .  S
O807        C828   1.270       .  A
O808       Ni831   1.917       .  S
O808        C817   1.269       .  A
O809       Ni813   1.921       .  S
O809       Ni831   1.915       .  S
O809       Ni825   1.905       .  S
O809        H832   0.966       .  S
C810        O827   1.264       .  A
C810        O819   1.270       .  A
C810        C842   1.436       .  S
O811       Ni830   1.928       .  S
O811        C817   1.270       .  A
O812       Ni830   1.902       .  S
O812        C814   1.270       .  A
Ni813       O816   1.927       .  S
Ni813       O818   1.903       .  S
C814        O824   1.278       .  A
C814       C1120   1.436       .  S
O815       Ni831   1.915       .  S
O815        C821   1.272       .  A
O816        C821   1.273       .  A
C817       C1540   1.446       .  S
O818        C820   1.267       .  A
O819       Ni830   1.935       .  S
C820        O826   1.270       .  A
C820        C980   1.430       .  S
C821        C856   1.438       .  S
H822        O823   0.966       .  S
O823       Ni831   1.930       .  S
O823       Ni825   1.920       .  S
O823       Ni830   1.925       .  S
O824       Ni825   1.950       .  S
Ni825       O829   1.917       .  S
Ni825       O827   1.905       .  S
O826       Ni831   1.926       .  S
C828        O829   1.268       .  A
C828        C870   1.445       .  S
C833        C841   1.440       .  S
C833        C834   1.402       .  A
C833        C838   1.401       .  A
C834        C835   1.400       .  A
C834        H843   1.083       .  S
C835        C836   1.402       .  A
C835        H844   1.083       .  S
C836        C839   1.440   1_556  S
C836        C837   1.401       .  A
C837        C838   1.398       .  A
C837        H845   1.083       .  S
C838        H846   1.083       .  S
C839        C840   1.206       .  T
C841        C842   1.206       .  T
C847        C855   1.443       .  S
C847        C848   1.401       .  A
C847        C852   1.402       .  A
C848        C849   1.401       .  A
C848        H857   1.083       .  S
C849        C850   1.402       .  A
C849        H858   1.083       .  S
C850        C853   1.444       .  S
C850        C851   1.402       .  A
C851        C852   1.400       .  A
C851        H859   1.083       .  S
C852        H860   1.083       .  S
C853        C854   1.209       .  T
C855        C856   1.208       .  T
C861        C869   1.450       .  S
C861        C862   1.403       .  A
C861        C866   1.403       .  A
C862        C863   1.402       .  A
C862        H871   1.083       .  S
C863        C864   1.403       .  A
C863        H872   1.083       .  S
C864        C867   1.449       .  S
C864        C865   1.403       .  A
C865        C866   1.403       .  A
C865        H873   1.083       .  S
C866        H874   1.083       .  S
C867        C868   1.212       .  T
C869        C870   1.212       .  T
C875        C883   1.441       .  S
C875        C876   1.402       .  A
C875        C880   1.401       .  A
C876        C877   1.400       .  A
C876        H885   1.083       .  S
C877        C878   1.401       .  A
C877        H886   1.083       .  S
C878        C881   1.440       .  S
C878        C879   1.401       .  A
C879        C880   1.399       .  A
C879        H887   1.083       .  S
C880        H888   1.083       .  S
C881        C882   1.206       .  T
C883        C884   1.206       .  T
C889        C897   1.437       .  S
C889        C890   1.400       .  A
C889        C894   1.401       .  A
C890        C891   1.397       .  A
C890        H899   1.084       .  S
C891        C892   1.401       .  A
C891        H900   1.084       .  S
C892        C895   1.437       .  S
C892        C893   1.401       .  A
C893        C894   1.399       .  A
C893        H901   1.083       .  S
C894        H902   1.083       .  S
C895        C896   1.204       .  T
C897        C898   1.204   1_554  T
C903        C911   1.447       .  S
C903        C904   1.403       .  A
C903        C908   1.402       .  A
C904        C905   1.402       .  A
C904        H913   1.083       .  S
C905        C906   1.403       .  A
C905        H914   1.083       .  S
C906        C909   1.446       .  S
C906        C907   1.402       .  A
C907        C908   1.401       .  A
C907        H915   1.083       .  S
C908        H916   1.083       .  S
C909        C910   1.210       .  T
C911        C912   1.210       .  T
C917        C925   1.440       .  S
C917        C918   1.400       .  A
C917        C922   1.402       .  A
C918        C919   1.398       .  A
C918        H927   1.083       .  S
C919        C920   1.402       .  A
C919        H928   1.084       .  S
C920        C923   1.440       .  S
C920        C921   1.401       .  A
C921        C922   1.400       .  A
C921        H929   1.083       .  S
C922        H930   1.083       .  S
C923        C924   1.206       .  T
C925        C926   1.206       .  T
C931        C939   1.444       .  S
C931        C932   1.401       .  A
C931        C936   1.403       .  A
C932        C933   1.400       .  A
C932        H941   1.083       .  S
C933        C934   1.402       .  A
C933        H942   1.083       .  S
C934        C937   1.443       .  S
C934        C935   1.402       .  A
C935        C936   1.401       .  A
C935        H943   1.083       .  S
C936        H944   1.083       .  S
C937        C938   1.208       .  T
C939        C940   1.209       .  T
C945        C953   1.445       .  S
C945        C946   1.402       .  A
C945        C950   1.403       .  A
C946        C947   1.400       .  A
C946        H955   1.083       .  S
C947        C948   1.402       .  A
C947        H956   1.083       .  S
C948        C951   1.445       .  S
C948        C949   1.403       .  A
C949        C950   1.402       .  A
C949        H957   1.083       .  S
C950        H958   1.083       .  S
C951        C952   1.209       .  T
C953        C954   1.209       .  T
C959        C967   1.439       .  S
C959        C960   1.400       .  A
C959        C964   1.402       .  A
C960        C961   1.398       .  A
C960        H969   1.084       .  S
C961        C962   1.401       .  A
C961        H970   1.083       .  S
C962        C965   1.439       .  S
C962        C963   1.401       .  A
C963        C964   1.400       .  A
C963        H971   1.083       .  S
C964        H972   1.083       .  S
C965        C966   1.205       .  T
C967        C968   1.206       .  T
C973        C981   1.436       .  S
C973        C974   1.402       .  A
C973        C978   1.400       .  A
C974        C975   1.399       .  A
C974        H983   1.083       .  S
C975        C976   1.401       .  A
C975        H984   1.083       .  S
C976        C979   1.435       .  S
C976        C977   1.400       .  A
C977        C978   1.395       .  A
C977        H985   1.084       .  S
C978        H986   1.084       .  S
C979        C980   1.203       .  T
C981        C982   1.204       .  T
C987        C995   1.460       .  S
C987        C988   1.406       .  A
C987        C992   1.404       .  A
C988        C989   1.409       .  A
C988        H997   1.083       .  S
C989        C990   1.406       .  A
C989        H998   1.083       .  S
C990        C993   1.461       .  S
C990        C991   1.404       .  A
C991        C992   1.405       .  A
C991        H999   1.083       .  S
C992       H1000   1.083       .  S
C993        C994   1.219       .  T
C995        C996   1.218       .  T
C1001      C1009   1.449       .  S
C1001      C1002   1.404       .  A
C1001      C1006   1.402       .  A
C1002      C1003   1.403       .  A
C1002      H1011   1.083       .  S
C1003      C1004   1.403       .  A
C1003      H1012   1.083       .  S
C1004      C1007   1.449       .  S
C1004      C1005   1.403       .  A
C1005      C1006   1.402       .  A
C1005      H1013   1.083       .  S
C1006      H1014   1.083       .  S
C1007      C1008   1.211       .  T
C1009      C1010   1.211       .  T
C1015      C1023   1.449       .  S
C1015      C1016   1.403       .  A
C1015      C1020   1.403       .  A
C1016      C1017   1.403       .  A
C1016      H1025   1.083       .  S
C1017      C1018   1.403       .  A
C1017      H1026   1.083       .  S
C1018      C1021   1.448       .  S
C1018      C1019   1.402       .  A
C1019      C1020   1.402       .  A
C1019      H1027   1.083       .  S
C1020      H1028   1.083       .  S
C1021      C1022   1.211       .  T
C1023      C1024   1.211       .  T
C1029      C1037   1.439       .  S
C1029      C1030   1.402       .  A
C1029      C1034   1.401       .  A
C1030      C1031   1.399       .  A
C1030      H1039   1.084       .  S
C1031      C1032   1.401       .  A
C1031      H1040   1.083       .  S
C1032      C1035   1.439       .  S
C1032      C1033   1.401       .  A
C1033      C1034   1.399       .  A
C1033      H1041   1.083       .  S
C1034      H1042   1.083       .  S
C1035      C1036   1.205       .  T
C1037      C1038   1.206       .  T
C1043      C1051   1.459       .  S
C1043      C1044   1.405       .  A
C1043      C1048   1.405       .  A
C1044      C1045   1.406       .  A
C1044      H1053   1.083   1_554  S
C1045      C1046   1.405       .  A
C1045      H1054   1.083   1_554  S
C1046      C1049   1.458       .  S
C1046      C1047   1.405       .  A
C1047      C1048   1.407       .  A
C1047      H1055   1.083       .  S
C1048      H1056   1.083       .  S
C1049      C1050   1.217   1_554  T
C1051      C1052   1.218       .  T
C1057      C1065   1.442       .  S
C1057      C1058   1.401       .  A
C1057      C1062   1.402       .  A
C1058      C1059   1.400       .  A
C1058      H1067   1.083       .  S
C1059      C1060   1.402       .  A
C1059      H1068   1.083       .  S
C1060      C1063   1.444       .  S
C1060      C1061   1.402       .  A
C1061      C1062   1.400       .  A
C1061      H1069   1.083       .  S
C1062      H1070   1.083       .  S
C1063      C1064   1.208       .  T
C1065      C1066   1.207       .  T
C1071      C1079   1.441       .  S
C1071      C1072   1.401       .  A
C1071      C1076   1.402       .  A
C1072      C1073   1.399       .  A
C1072      H1081   1.083       .  S
C1073      C1074   1.402       .  A
C1073      H1082   1.083       .  S
C1074      C1077   1.441       .  S
C1074      C1075   1.401       .  A
C1075      C1076   1.400       .  A
C1075      H1083   1.083       .  S
C1076      H1084   1.083       .  S
C1077      C1078   1.207       .  T
C1079      C1080   1.207       .  T
C1085      C1093   1.443       .  S
C1085      C1086   1.402       .  A
C1085      C1090   1.402       .  A
C1086      C1087   1.400       .  A
C1086      H1095   1.083       .  S
C1087      C1088   1.402       .  A
C1087      H1096   1.083       .  S
C1088      C1091   1.442       .  S
C1088      C1089   1.401       .  A
C1089      C1090   1.400       .  A
C1089      H1097   1.083       .  S
C1090      H1098   1.083       .  S
C1091      C1092   1.207       .  T
C1093      C1094   1.208       .  T
C1099      C1107   1.441   1_554  S
C1099      C1100   1.402       .  A
C1099      C1104   1.401       .  A
C1100      C1101   1.399       .  A
C1100      H1109   1.083       .  S
C1101      C1102   1.401       .  A
C1101      H1110   1.083       .  S
C1102      C1105   1.442       .  S
C1102      C1103   1.403       .  A
C1103      C1104   1.400       .  A
C1103      H1111   1.083       .  S
C1104      H1112   1.083       .  S
C1105      C1106   1.207       .  T
C1107      C1108   1.207       .  T
C1113      C1121   1.441       .  S
C1113      C1114   1.402       .  A
C1113      C1118   1.401       .  A
C1114      C1115   1.399       .  A
C1114      H1123   1.084       .  S
C1115      C1116   1.401       .  A
C1115      H1124   1.083       .  S
C1116      C1119   1.441       .  S
C1116      C1117   1.402       .  A
C1117      C1118   1.400       .  A
C1117      H1125   1.083       .  S
C1118      H1126   1.083       .  S
C1119      C1120   1.206       .  T
C1121      C1122   1.207       .  T
C1127      C1135   1.452       .  S
C1127      C1128   1.403       .  A
C1127      C1132   1.404       .  A
C1128      C1129   1.404       .  A
C1128      H1137   1.083       .  S
C1129      C1130   1.404       .  A
C1129      H1138   1.083       .  S
C1130      C1133   1.452       .  S
C1130      C1131   1.403       .  A
C1131      C1132   1.404       .  A
C1131      H1139   1.083       .  S
C1132      H1140   1.083       .  S
C1133      C1134   1.213       .  T
C1135      C1136   1.213       .  T
C1141      C1149   1.440       .  S
C1141      C1142   1.401       .  A
C1141      C1146   1.402       .  A
C1142      C1143   1.399       .  A
C1142      H1151   1.083       .  S
C1143      C1144   1.402       .  A
C1143      H1152   1.083       .  S
C1144      C1147   1.441       .  S
C1144      C1145   1.401       .  A
C1145      C1146   1.400       .  A
C1145      H1153   1.083       .  S
C1146      H1154   1.083       .  S
C1147      C1148   1.207       .  T
C1149      C1150   1.206       .  T
C1155      C1163   1.438       .  S
C1155      C1156   1.400       .  A
C1155      C1160   1.402       .  A
C1156      C1157   1.397       .  A
C1156      H1165   1.083       .  S
C1157      C1158   1.401       .  A
C1157      H1166   1.084       .  S
C1158      C1161   1.438       .  S
C1158      C1159   1.401       .  A
C1159      C1160   1.399       .  A
C1159      H1167   1.083       .  S
C1160      H1168   1.083       .  S
C1161      C1162   1.205   1_556  T
C1163      C1164   1.205       .  T
C1169      C1177   1.439       .  S
C1169      C1170   1.402       .  A
C1169      C1174   1.401       .  A
C1170      C1171   1.399       .  A
C1170      H1179   1.083       .  S
C1171      C1172   1.402       .  A
C1171      H1180   1.083       .  S
C1172      C1175   1.439       .  S
C1172      C1173   1.401       .  A
C1173      C1174   1.398       .  A
C1173      H1181   1.083       .  S
C1174      H1182   1.083       .  S
C1175      C1176   1.206       .  T
C1177      C1178   1.206       .  T
C1183      C1191   1.452       .  S
C1183      C1184   1.404       .  A
C1183      C1188   1.403       .  A
C1184      C1185   1.406       .  A
C1184      H1193   1.083       .  S
C1185      C1186   1.405       .  A
C1185      H1194   1.083       .  S
C1186      C1189   1.453       .  S
C1186      C1187   1.402       .  A
C1187      C1188   1.402       .  A
C1187      H1195   1.083       .  S
C1188      H1196   1.083       .  S
C1189      C1190   1.214       .  T
C1191      C1192   1.213       .  T
C1197      C1205   1.439       .  S
C1197      C1198   1.400       .  A
C1197      C1202   1.402       .  A
C1198      C1199   1.398   1_455  A
C1198      H1207   1.083       .  S
C1199      C1200   1.401       .  A
C1199      H1208   1.084       .  S
C1200      C1203   1.439       .  S
C1200      C1201   1.401       .  A
C1201      C1202   1.400   1_655  A
C1201      H1209   1.083       .  S
C1202      H1210   1.083       .  S
C1203      C1204   1.206       .  T
C1205      C1206   1.205       .  T
C1211      C1219   1.444       .  S
C1211      C1212   1.403       .  A
C1211      C1216   1.401       .  A
C1212      C1213   1.401       .  A
C1212      H1221   1.083       .  S
C1213      C1214   1.401       .  A
C1213      H1222   1.083       .  S
C1214      C1217   1.444       .  S
C1214      C1215   1.403       .  A
C1215      C1216   1.400       .  A
C1215      H1223   1.084       .  S
C1216      H1224   1.083       .  S
C1217      C1218   1.208       .  T
C1219      C1220   1.209       .  T
C1225      C1233   1.438       .  S
C1225      C1226   1.401       .  A
C1225      C1230   1.401   1_554  A
C1226      C1227   1.397   1_455  A
C1226      H1235   1.084       .  S
C1227      C1228   1.401   1_554  A
C1227      H1236   1.084       .  S
C1228      C1231   1.440       .  S
C1228      C1229   1.402       .  A
C1229      C1230   1.400   1_655  A
C1229      H1237   1.083       .  S
C1230      H1238   1.083       .  S
C1231      C1232   1.206       .  T
C1233      C1234   1.205       .  T
C1239      C1247   1.444       .  S
C1239      C1240   1.403       .  A
C1239      C1244   1.401       .  A
C1240      C1241   1.401       .  A
C1240      H1249   1.083       .  S
C1241      C1242   1.401       .  A
C1241      H1250   1.083       .  S
C1242      C1245   1.444       .  S
C1242      C1243   1.403       .  A
C1243      C1244   1.400       .  A
C1243      H1251   1.083       .  S
C1244      H1252   1.083       .  S
C1245      C1246   1.209       .  T
C1247      C1248   1.209       .  T
C1253      C1261   1.440       .  S
C1253      C1254   1.402       .  A
C1253      C1258   1.401       .  A
C1254      C1255   1.399       .  A
C1254      H1263   1.084       .  S
C1255      C1256   1.400       .  A
C1255      H1264   1.083       .  S
C1256      C1259   1.441       .  S
C1256      C1257   1.403       .  A
C1257      C1258   1.400       .  A
C1257      H1265   1.083       .  S
C1258      H1266   1.083       .  S
C1259      C1260   1.206       .  T
C1261      C1262   1.206       .  T
C1267      C1275   1.444       .  S
C1267      C1268   1.402       .  A
C1267      C1272   1.402       .  A
C1268      C1269   1.401       .  A
C1268      H1277   1.083       .  S
C1269      C1270   1.403       .  A
C1269      H1278   1.083       .  S
C1270      C1273   1.444       .  S
C1270      C1271   1.401       .  A
C1271      C1272   1.400       .  A
C1271      H1279   1.083       .  S
C1272      H1280   1.084       .  S
C1273      C1274   1.208       .  T
C1275      C1276   1.208       .  T
C1281      C1289   1.447       .  S
C1281      C1282   1.402       .  A
C1281      C1286   1.403       .  A
C1282      C1283   1.401   1_455  A
C1282      H1291   1.083   1_556  S
C1283      C1284   1.403       .  A
C1283      H1292   1.083       .  S
C1284      C1287   1.449       .  S
C1284      C1285   1.403       .  A
C1285      C1286   1.403   1_655  A
C1285      H1293   1.083       .  S
C1286      H1294   1.083       .  S
C1287      C1288   1.212       .  T
C1289      C1290   1.210       .  T
C1295      C1303   1.450       .  S
C1295      C1296   1.403       .  A
C1295      C1300   1.403       .  A
C1296      C1297   1.403       .  A
C1296      H1305   1.083       .  S
C1297      C1298   1.404       .  A
C1297      H1306   1.083       .  S
C1298      C1301   1.450       .  S
C1298      C1299   1.403       .  A
C1299      C1300   1.402       .  A
C1299      H1307   1.083       .  S
C1300      H1308   1.083       .  S
C1301      C1302   1.212       .  T
C1303      C1304   1.212       .  T
C1309      C1317   1.442       .  S
C1309      C1310   1.402       .  A
C1309      C1314   1.402       .  A
C1310      C1311   1.400       .  A
C1310      H1319   1.083       .  S
C1311      C1312   1.402       .  A
C1311      H1320   1.083       .  S
C1312      C1315   1.441       .  S
C1312      C1313   1.401       .  A
C1313      C1314   1.399       .  A
C1313      H1321   1.083       .  S
C1314      H1322   1.083       .  S
C1315      C1316   1.206       .  T
C1317      C1318   1.207       .  T
C1323      C1331   1.440       .  S
C1323      C1324   1.402       .  A
C1323      C1328   1.400       .  A
C1324      C1325   1.402   1_455  A
C1324      H1333   1.083       .  S
C1325      C1326   1.403       .  A
C1325      H1334   1.083       .  S
C1326      C1329   1.440       .  S
C1326      C1327   1.400   1_655  A
C1327      C1328   1.396       .  A
C1327      H1335   1.084   1_455  S
C1328      H1336   1.084       .  S
C1329      C1330   1.206       .  T
C1331      C1332   1.206       .  T
C1337      C1345   1.440       .  S
C1337      C1338   1.401       .  A
C1337      C1342   1.402       .  A
C1338      C1339   1.397       .  A
C1338      H1347   1.084       .  S
C1339      C1340   1.400       .  A
C1339      H1348   1.084       .  S
C1340      C1343   1.439       .  S
C1340      C1341   1.402       .  A
C1341      C1342   1.401       .  A
C1341      H1349   1.083       .  S
C1342      H1350   1.083       .  S
C1343      C1344   1.205       .  T
C1345      C1346   1.206       .  T
C1351      C1359   1.443       .  S
C1351      C1352   1.401       .  A
C1351      C1356   1.403       .  A
C1352      C1353   1.399       .  A
C1352      H1361   1.083       .  S
C1353      C1354   1.402       .  A
C1353      H1362   1.083       .  S
C1354      C1357   1.444       .  S
C1354      C1355   1.403       .  A
C1355      C1356   1.402       .  A
C1355      H1363   1.083       .  S
C1356      H1364   1.083       .  S
C1357      C1358   1.209       .  T
C1359      C1360   1.208       .  T
C1365      C1373   1.438       .  S
C1365      C1366   1.402       .  A
C1365      C1370   1.400       .  A
C1366      C1367   1.400       .  A
C1366      H1375   1.083       .  S
C1367      C1368   1.402       .  A
C1367      H1376   1.083       .  S
C1368      C1371   1.438       .  S
C1368      C1369   1.400       .  A
C1369      C1370   1.397       .  A
C1369      H1377   1.084       .  S
C1370      H1378   1.084       .  S
C1371      C1372   1.205       .  T
C1373      C1374   1.205       .  T
C1379      C1387   1.456       .  S
C1379      C1380   1.404       .  A
C1379      C1384   1.404       .  A
C1380      C1381   1.405       .  A
C1380      H1389   1.083       .  S
C1381      C1382   1.404       .  A
C1381      H1390   1.083       .  S
C1382      C1385   1.457       .  S
C1382      C1383   1.405       .  A
C1383      C1384   1.406       .  A
C1383      H1391   1.083       .  S
C1384      H1392   1.083       .  S
C1385      C1386   1.216       .  T
C1387      C1388   1.216       .  T
C1393      C1401   1.453       .  S
C1393      C1394   1.403       .  A
C1393      C1398   1.404       .  A
C1394      C1395   1.403       .  A
C1394      H1403   1.083       .  S
C1395      C1396   1.404       .  A
C1395      H1404   1.083       .  S
C1396      C1399   1.453       .  S
C1396      C1397   1.404       .  A
C1397      C1398   1.405       .  A
C1397      H1405   1.083       .  S
C1398      H1406   1.083       .  S
C1399      C1400   1.214       .  T
C1401      C1402   1.214       .  T
C1407      C1415   1.457       .  S
C1407      C1408   1.405       .  A
C1407      C1412   1.404       .  A
C1408      C1409   1.407       .  A
C1408      H1417   1.083       .  S
C1409      C1410   1.405       .  A
C1409      H1418   1.083       .  S
C1410      C1413   1.457       .  S
C1410      C1411   1.404       .  A
C1411      C1412   1.405       .  A
C1411      H1419   1.083       .  S
C1412      H1420   1.083       .  S
C1413      C1414   1.216       .  T
C1415      C1416   1.216       .  T
C1421      C1429   1.443       .  S
C1421      C1422   1.401       .  A
C1421      C1426   1.403       .  A
C1422      C1423   1.399       .  A
C1422      H1431   1.083       .  S
C1423      C1424   1.402       .  A
C1423      H1432   1.083       .  S
C1424      C1427   1.442       .  S
C1424      C1425   1.402       .  A
C1425      C1426   1.401       .  A
C1425      H1433   1.083       .  S
C1426      H1434   1.083       .  S
C1427      C1428   1.207       .  T
C1429      C1430   1.208       .  T
C1435      C1443   1.440       .  S
C1435      C1436   1.401       .  A
C1435      C1440   1.401       .  A
C1436      C1437   1.399       .  A
C1436      H1445   1.083       .  S
C1437      C1438   1.401       .  A
C1437      H1446   1.083       .  S
C1438      C1441   1.440       .  S
C1438      C1439   1.402       .  A
C1439      C1440   1.399       .  A
C1439      H1447   1.083       .  S
C1440      H1448   1.083       .  S
C1441      C1442   1.206       .  T
C1443      C1444   1.206       .  T
C1449      C1457   1.446       .  S
C1449      C1450   1.402       .  A
C1449      C1454   1.402       .  A
C1450      C1451   1.401       .  A
C1450      H1459   1.083       .  S
C1451      C1452   1.402       .  A
C1451      H1460   1.083       .  S
C1452      C1455   1.446       .  S
C1452      C1453   1.402       .  A
C1453      C1454   1.402       .  A
C1453      H1461   1.083       .  S
C1454      H1462   1.083       .  S
C1455      C1456   1.210       .  T
C1457      C1458   1.209       .  T
C1463      C1471   1.442       .  S
C1463      C1464   1.401       .  A
C1463      C1468   1.403       .  A
C1464      C1465   1.398       .  A
C1464      H1473   1.083       .  S
C1465      C1466   1.402       .  A
C1465      H1474   1.084       .  S
C1466      C1469   1.442       .  S
C1466      C1467   1.402       .  A
C1467      C1468   1.401       .  A
C1467      H1475   1.083       .  S
C1468      H1476   1.083       .  S
C1469      C1470   1.207       .  T
C1471      C1472   1.207       .  T
C1477      C1485   1.450       .  S
C1477      C1478   1.404       .  A
C1477      C1482   1.403       .  A
C1478      C1479   1.403       .  A
C1478      H1487   1.083       .  S
C1479      C1480   1.403       .  A
C1479      H1488   1.083       .  S
C1480      C1483   1.449       .  S
C1480      C1481   1.403       .  A
C1481      C1482   1.403       .  A
C1481      H1489   1.083       .  S
C1482      H1490   1.083       .  S
C1483      C1484   1.211       .  T
C1485      C1486   1.212       .  T
C1491      C1499   1.441       .  S
C1491      C1492   1.402       .  A
C1491      C1496   1.401       .  A
C1492      C1493   1.401       .  A
C1492      H1501   1.083       .  S
C1493      C1494   1.402       .  A
C1493      H1502   1.083       .  S
C1494      C1497   1.442       .  S
C1494      C1495   1.401       .  A
C1495      C1496   1.398       .  A
C1495      H1503   1.083       .  S
C1496      H1504   1.083       .  S
C1497      C1498   1.207       .  T
C1499      C1500   1.207       .  T
C1505      C1513   1.442   1_554  S
C1505      C1506   1.402       .  A
C1505      C1510   1.402       .  A
C1506      C1507   1.400       .  A
C1506      H1515   1.083       .  S
C1507      C1508   1.402       .  A
C1507      H1516   1.083       .  S
C1508      C1511   1.442       .  S
C1508      C1509   1.402       .  A
C1509      C1510   1.400       .  A
C1509      H1517   1.083       .  S
C1510      H1518   1.083       .  S
C1511      C1512   1.207       .  T
C1513      C1514   1.207       .  T
C1519      C1527   1.447       .  S
C1519      C1520   1.403       .  A
C1519      C1524   1.402       .  A
C1520      C1521   1.403       .  A
C1520      H1529   1.083       .  S
C1521      C1522   1.403       .  A
C1521      H1530   1.083       .  S
C1522      C1525   1.447       .  S
C1522      C1523   1.402       .  A
C1523      C1524   1.401       .  A
C1523      H1531   1.083       .  S
C1524      H1532   1.083       .  S
C1525      C1526   1.210       .  T
C1527      C1528   1.210       .  T
C1533      C1541   1.452       .  S
C1533      C1534   1.404       .  A
C1533      C1538   1.403       .  A
C1534      C1535   1.405       .  A
C1534      H1543   1.083       .  S
C1535      C1536   1.404       .  A
C1535      H1544   1.083       .  S
C1536      C1539   1.451       .  S
C1536      C1537   1.403       .  A
C1537      C1538   1.402       .  A
C1537      H1545   1.083       .  S
C1538      H1546   1.083       .  S
C1539      C1540   1.213       .  T
C1541      C1542   1.213       .  T
C1547      C1555   1.447       .  S
C1547      C1548   1.402       .  A
C1547      C1552   1.403       .  A
C1548      C1549   1.401   1_545  A
C1548      H1557   1.083       .  S
C1549      C1550   1.403       .  A
C1549      H1558   1.083       .  S
C1550      C1553   1.448       .  S
C1550      C1551   1.403       .  A
C1551      C1552   1.403   1_565  A
C1551      H1559   1.083       .  S
C1552      H1560   1.083       .  S
C1553      C1554   1.211       .  T
C1555      C1556   1.210       .  T
C1561      C1569   1.447       .  S
C1561      C1562   1.403       .  A
C1561      C1566   1.402       .  A
C1562      C1563   1.403       .  A
C1562      H1571   1.083       .  S
C1563      C1564   1.403       .  A
C1563      H1572   1.083       .  S
C1564      C1567   1.447       .  S
C1564      C1565   1.402       .  A
C1565      C1566   1.401       .  A
C1565      H1573   1.083       .  S
C1566      H1574   1.083       .  S
C1567      C1568   1.210       .  T
C1569      C1570   1.210       .  T
C1575      C1583   1.444       .  S
C1575      C1576   1.403       .  A
C1575      C1580   1.402       .  A
C1576      C1577   1.401       .  A
C1576      H1585   1.083       .  S
C1577      C1578   1.402       .  A
C1577      H1586   1.083       .  S
C1578      C1581   1.444       .  S
C1578      C1579   1.402       .  A
C1579      C1580   1.401       .  A
C1579      H1587   1.083       .  S
C1580      H1588   1.083       .  S
C1581      C1582   1.209   1_556  T
C1583      C1584   1.208       .  T
C1589      C1597   1.438       .  S
C1589      C1590   1.402       .  A
C1589      C1594   1.400       .  A
C1590      C1591   1.398       .  A
C1590      H1599   1.083       .  S
C1591      C1592   1.400       .  A
C1591      H1600   1.083       .  S
C1592      C1595   1.437       .  S
C1592      C1593   1.401       .  A
C1593      C1594   1.398       .  A
C1593      H1601   1.084       .  S
C1594      H1602   1.083       .  S
C1595      C1596   1.204       .  T
C1597      C1598   1.205       .  T
C1603      C1611   1.450       .  S
C1603      C1604   1.402       .  A
C1603      C1608   1.404       .  A
C1604      C1605   1.402   1_545  A
C1604      H1613   1.083       .  S
C1605      C1606   1.403       .  A
C1605      H1614   1.083       .  S
C1606      C1609   1.450       .  S
C1606      C1607   1.403       .  A
C1607      C1608   1.404   1_565  A
C1607      H1615   1.083       .  S
C1608      H1616   1.083       .  S
C1609      C1610   1.212       .  T
C1611      C1612   1.212       .  T
C1617      C1625   1.458       .  S
C1617      C1618   1.406       .  A
C1617      C1622   1.403       .  A
C1618      C1619   1.407       .  A
C1618      H1627   1.083       .  S
C1619      C1620   1.405       .  A
C1619      H1628   1.083       .  S
C1620      C1623   1.458       .  S
C1620      C1621   1.404       .  A
C1621      C1622   1.405       .  A
C1621      H1629   1.083       .  S
C1622      H1630   1.083       .  S
C1623      C1624   1.217       .  T
C1625      C1626   1.217       .  T
C1631      C1639   1.459       .  S
C1631      C1632   1.404       .  A
C1631      C1636   1.406       .  A
C1632      C1633   1.405   1_545  A
C1632      H1641   1.083       .  S
C1633      C1634   1.404       .  A
C1633      H1642   1.083       .  S
C1634      C1637   1.459       .  S
C1634      C1635   1.405       .  A
C1635      C1636   1.408   1_565  A
C1635      H1643   1.083       .  S
C1636      H1644   1.083       .  S
C1637      C1638   1.217       .  T
C1639      C1640   1.218       .  T
C1645      C1653   1.451       .  S
C1645      C1646   1.404       .  A
C1645      C1650   1.402       .  A
C1646      C1647   1.404       .  A
C1646      H1655   1.083       .  S
C1647      C1648   1.403       .  A
C1647      H1656   1.083       .  S
C1648      C1651   1.451       .  S
C1648      C1649   1.404       .  A
C1649      C1650   1.403       .  A
C1649      H1657   1.083       .  S
C1650      H1658   1.083       .  S
C1651      C1652   1.213       .  T
C1653      C1654   1.213       .  T
C1659      C1667   1.459       .  S
C1659      C1660   1.406       .  A
C1659      C1664   1.404       .  A
C1660      C1661   1.408       .  A
C1660      H1669   1.083       .  S
C1661      C1662   1.405       .  A
C1661      H1670   1.083       .  S
C1662      C1665   1.459       .  S
C1662      C1663   1.405       .  A
C1663      C1664   1.405       .  A
C1663      H1671   1.083       .  S
C1664      H1672   1.083       .  S
C1665      C1666   1.217       .  T
C1667      C1668   1.218       .  T
C1673      C1681   1.437       .  S
C1673      C1674   1.400       .  A
C1673      C1678   1.402       .  A
C1674      C1675   1.397       .  A
C1674      H1683   1.083       .  S
C1675      C1676   1.401       .  A
C1675      H1684   1.084       .  S
C1676      C1679   1.439       .  S
C1676      C1677   1.401       .  A
C1677      C1678   1.399       .  A
C1677      H1685   1.083       .  S
C1678      H1686   1.084       .  S
C1679      C1680   1.205       .  T
C1681      C1682   1.204       .  T
C1687      C1695   1.440       .  S
C1687      C1688   1.400       .  A
C1687      C1692   1.402       .  A
C1688      C1689   1.399       .  A
C1688      H1697   1.083       .  S
C1689      C1690   1.403       .  A
C1689      H1698   1.084       .  S
C1690      C1693   1.440       .  S
C1690      C1691   1.400       .  A
C1691      C1692   1.399       .  A
C1691      H1699   1.083       .  S
C1692      H1700   1.083       .  S
C1693      C1694   1.206       .  T
C1695      C1696   1.206       .  T
C1701      C1709   1.457       .  S
C1701      C1702   1.404   1_556  A
C1701      C1706   1.404       .  A
C1702      C1703   1.406   1_545  A
C1702      H1711   1.083       .  S
C1703      C1704   1.405       .  A
C1703      H1712   1.083       .  S
C1704      C1707   1.457       .  S
C1704      C1705   1.404   1_554  A
C1705      C1706   1.405   1_565  A
C1705      H1713   1.083       .  S
C1706      H1714   1.083       .  S
C1707      C1708   1.216       .  T
C1709      C1710   1.216       .  T
C1715      C1723   1.449       .  S
C1715      C1716   1.404       .  A
C1715      C1720   1.402       .  A
C1716      C1717   1.404       .  A
C1716      H1725   1.083       .  S
C1717      C1718   1.403       .  A
C1717      H1726   1.083       .  S
C1718      C1721   1.449       .  S
C1718      C1719   1.403       .  A
C1719      C1720   1.402       .  A
C1719      H1727   1.083       .  S
C1720      H1728   1.083       .  S
C1721      C1722   1.211       .  T
C1723      C1724   1.212       .  T
C1729      C1737   1.445       .  S
C1729      C1730   1.402       .  A
C1729      C1734   1.403       .  A
C1730      C1731   1.400       .  A
C1730      H1739   1.083       .  S
C1731      C1732   1.402       .  A
C1731      H1740   1.083       .  S
C1732      C1735   1.445       .  S
C1732      C1733   1.402       .  A
C1733      C1734   1.402       .  A
C1733      H1741   1.083       .  S
C1734      H1742   1.083       .  S
C1735      C1736   1.209       .  T
C1737      C1738   1.209       .  T
C1743      C1751   1.452       .  S
C1743      C1744   1.404       .  A
C1743      C1748   1.403       .  A
C1744      C1745   1.405       .  A
C1744      H1753   1.083       .  S
C1745      C1746   1.404       .  A
C1745      H1754   1.083       .  S
C1746      C1749   1.453       .  S
C1746      C1747   1.404       .  A
C1747      C1748   1.403       .  A
C1747      H1755   1.083       .  S
C1748      H1756   1.083       .  S
C1749      C1750   1.214       .  T
C1751      C1752   1.213       .  T
C1757      C1765   1.444       .  S
C1757      C1758   1.402       .  A
C1757      C1762   1.402       .  A
C1758      C1759   1.402       .  A
C1758      H1767   1.083       .  S
C1759      C1760   1.402       .  A
C1759      H1768   1.083       .  S
C1760      C1763   1.443       .  S
C1760      C1761   1.401       .  A
C1761      C1762   1.399       .  A
C1761      H1769   1.083       .  S
C1762      H1770   1.083       .  S
C1763      C1764   1.208       .  T
C1765      C1766   1.208       .  T
C1771      C1779   1.449       .  S
C1771      C1772   1.404       .  A
C1771      C1776   1.402       .  A
C1772      C1773   1.405       .  A
C1772      H1781   1.083       .  S
C1773      C1774   1.404       .  A
C1773      H1782   1.083       .  S
C1774      C1777   1.450       .  S
C1774      C1775   1.403       .  A
C1775      C1776   1.401       .  A
C1775      H1783   1.084       .  S
C1776      H1784   1.084       .  S
C1777      C1778   1.212       .  T
C1779      C1780   1.211       .  T
C1785      C1793   1.439       .  S
C1785      C1786   1.401       .  A
C1785      C1790   1.401       .  A
C1786      C1787   1.399       .  A
C1786      H1795   1.083       .  S
C1787      C1788   1.401       .  A
C1787      H1796   1.083       .  S
C1788      C1791   1.439       .  S
C1788      C1789   1.402       .  A
C1789      C1790   1.399       .  A
C1789      H1797   1.083       .  S
C1790      H1798   1.083       .  S
C1791      C1792   1.206       .  T
C1793      C1794   1.206       .  T
C1799      C1807   1.438   1_554  S
C1799      C1800   1.402       .  A
C1799      C1804   1.400       .  A
C1800      C1801   1.399       .  A
C1800      H1809   1.083       .  S
C1801      C1802   1.401       .  A
C1801      H1810   1.083       .  S
C1802      C1805   1.438       .  S
C1802      C1803   1.401       .  A
C1803      C1804   1.398       .  A
C1803      H1811   1.084       .  S
C1804      H1812   1.083       .  S
C1805      C1806   1.205       .  T
C1807      C1808   1.205       .  T
C1813      C1821   1.441       .  S
C1813      C1814   1.401       .  A
C1813      C1818   1.402       .  A
C1814      C1815   1.399   1_455  A
C1814      H1823   1.083   1_556  S
C1815      C1816   1.402       .  A
C1815      H1824   1.084   1_556  S
C1816      C1819   1.441       .  S
C1816      C1817   1.401       .  A
C1817      C1818   1.400   1_655  A
C1817      H1825   1.083       .  S
C1818      H1826   1.083       .  S
C1819      C1820   1.206       .  T
C1821      C1822   1.207       .  T
C1827      C1835   1.439       .  S
C1827      C1828   1.401       .  A
C1827      C1832   1.401       .  A
C1828      C1829   1.398       .  A
C1828      H1837   1.084       .  S
C1829      C1830   1.401       .  A
C1829      H1838   1.084       .  S
C1830      C1833   1.438       .  S
C1830      C1831   1.401       .  A
C1831      C1832   1.399       .  A
C1831      H1839   1.083       .  S
C1832      H1840   1.083       .  S
C1833      C1834   1.205       .  T
C1835      C1836   1.205       .  T
C1841      C1849   1.443       .  S
C1841      C1842   1.401       .  A
C1841      C1846   1.403       .  A
C1842      C1843   1.400       .  A
C1842      H1851   1.083       .  S
C1843      C1844   1.402       .  A
C1843      H1852   1.083       .  S
C1844      C1847   1.444       .  S
C1844      C1845   1.402       .  A
C1845      C1846   1.401       .  A
C1845      H1853   1.083       .  S
C1846      H1854   1.083       .  S
C1847      C1848   1.208       .  T
C1849      C1850   1.208       .  T
C1855      C1863   1.444       .  S
C1855      C1856   1.402       .  A
C1855      C1860   1.402       .  A
C1856      C1857   1.401   1_455  A
C1856      H1865   1.083       .  S
C1857      C1858   1.402       .  A
C1857      H1866   1.083       .  S
C1858      C1861   1.442       .  S
C1858      C1859   1.401       .  A
C1859      C1860   1.399   1_655  A
C1859      H1867   1.083       .  S
C1860      H1868   1.083       .  S
C1861      C1862   1.207       .  T
C1863      C1864   1.208       .  T
C1869      C1877   1.458       .  S
C1869      C1870   1.404       .  A
C1869      C1874   1.405       .  A
C1870      C1871   1.406       .  A
C1870      H1879   1.083       .  S
C1871      C1872   1.405       .  A
C1871      H1880   1.083       .  S
C1872      C1875   1.458       .  S
C1872      C1873   1.404       .  A
C1873      C1874   1.407       .  A
C1873      H1881   1.083       .  S
C1874      H1882   1.083       .  S
C1875      C1876   1.217       .  T
C1877      C1878   1.217       .  T
C1883      C1891   1.438       .  S
C1883      C1884   1.401       .  A
C1883      C1888   1.401       .  A
C1884      C1885   1.399       .  A
C1884      H1893   1.083       .  S
C1885      C1886   1.401       .  A
C1885      H1894   1.083       .  S
C1886      C1889   1.438       .  S
C1886      C1887   1.401       .  A
C1887      C1888   1.398       .  A
C1887      H1895   1.083       .  S
C1888      H1896   1.084       .  S
C1889      C1890   1.205       .  T
C1891      C1892   1.205       .  T
C1897      C1905   1.442       .  S
C1897      C1898   1.401       .  A
C1897      C1902   1.402       .  A
C1898      C1899   1.399       .  A
C1898      H1907   1.083       .  S
C1899      C1900   1.401       .  A
C1899      H1908   1.083       .  S
C1900      C1903   1.442       .  S
C1900      C1901   1.402       .  A
C1901      C1902   1.400       .  A
C1901      H1909   1.083       .  S
C1902      H1910   1.083       .  S
C1903      C1904   1.207       .  T
C1905      C1906   1.207       .  T
C1911      C1919   1.446       .  S
C1911      C1912   1.403       .  A
C1911      C1916   1.402       .  A
C1912      C1913   1.403       .  A
C1912      H1921   1.083       .  S
C1913      C1914   1.404       .  A
C1913      H1922   1.083       .  S
C1914      C1917   1.445       .  S
C1914      C1915   1.401       .  A
C1915      C1916   1.400       .  A
C1915      H1923   1.083       .  S
C1916      H1924   1.083       .  S
C1917      C1918   1.209       .  T
C1919      C1920   1.209       .  T
C1925      C1933   1.454       .  S
C1925      C1926   1.403       .  A
C1925      C1930   1.404       .  A
C1926      C1927   1.404       .  A
C1926      H1935   1.083       .  S
C1927      C1928   1.404       .  A
C1927      H1936   1.083       .  S
C1928      C1931   1.454       .  S
C1928      C1929   1.404       .  A
C1929      C1930   1.406       .  A
C1929      H1937   1.083       .  S
C1930      H1938   1.083       .  S
C1931      C1932   1.214       .  T
C1933      C1934   1.214       .  T
C1939      C1947   1.444       .  S
C1939      C1940   1.402       .  A
C1939      C1944   1.403       .  A
C1940      C1941   1.399   1_455  A
C1940      H1949   1.084       .  S
C1941      C1942   1.402       .  A
C1941      H1950   1.084       .  S
C1942      C1945   1.444       .  S
C1942      C1943   1.402       .  A
C1943      C1944   1.402   1_655  A
C1943      H1951   1.083       .  S
C1944      H1952   1.083       .  S
C1945      C1946   1.209       .  T
C1947      C1948   1.208       .  T
C1953      C1961   1.461       .  S
C1953      C1954   1.407       .  A
C1953      C1958   1.404       .  A
C1954      C1955   1.409   1_545  A
C1954      H1963   1.083       .  S
C1955      C1956   1.406       .  A
C1955      H1964   1.083       .  S
C1956      C1959   1.461       .  S
C1956      C1957   1.404   1_565  A
C1957      C1958   1.406       .  A
C1957      H1965   1.083   1_545  S
C1958      H1966   1.083       .  S
C1959      C1960   1.218       .  T
C1961      C1962   1.219       .  T
C1967      C1975   1.444       .  S
C1967      C1968   1.402       .  A
C1967      C1972   1.402       .  A
C1968      C1969   1.401       .  A
C1968      H1977   1.083       .  S
C1969      C1970   1.402       .  A
C1969      H1978   1.083       .  S
C1970      C1973   1.444       .  S
C1970      C1971   1.402       .  A
C1971      C1972   1.400       .  A
C1971      H1979   1.083       .  S
C1972      H1980   1.083       .  S
C1973      C1974   1.209       .  T
C1975      C1976   1.208       .  T
C1981      C1989   1.447       .  S
C1981      C1982   1.403       .  A
C1981      C1986   1.403   1_554  A
C1982      C1983   1.402   1_455  A
C1982      H1991   1.083       .  S
C1983      C1984   1.403       .  A
C1983      H1992   1.083       .  S
C1984      C1987   1.446       .  S
C1984      C1985   1.402   1_554  A
C1985      C1986   1.401   1_655  A
C1985      H1993   1.083       .  S
C1986      H1994   1.083       .  S
C1987      C1988   1.209   1_554  T
C1989      C1990   1.210       .  T
C1995      C2003   1.445       .  S
C1995      C1996   1.403       .  A
C1995      C2000   1.402       .  A
C1996      C1997   1.401       .  A
C1996      H2005   1.083       .  S
C1997      C1998   1.402       .  A
C1997      H2006   1.083       .  S
C1998      C2001   1.445       .  S
C1998      C1999   1.403       .  A
C1999      C2000   1.401       .  A
C1999      H2007   1.083       .  S
C2000      H2008   1.083       .  S
C2001      C2002   1.209       .  T
C2003      C2004   1.209       .  T
C2009      C2017   1.441       .  S
C2009      C2010   1.401       .  A
C2009      C2014   1.402       .  A
C2010      C2011   1.400       .  A
C2010      H2019   1.083       .  S
C2011      C2012   1.402       .  A
C2011      H2020   1.083       .  S
C2012      C2015   1.441       .  S
C2012      C2013   1.401       .  A
C2013      C2014   1.399       .  A
C2013      H2021   1.083       .  S
C2014      H2022   1.083       .  S
C2015      C2016   1.207       .  T
C2017      C2018   1.207       .  T
C2023      C2031   1.447       .  S
C2023      C2024   1.403       .  A
C2023      C2028   1.402       .  A
C2024      C2025   1.403   1_545  A
C2024      H2033   1.083       .  S
C2025      C2026   1.403       .  A
C2025      H2034   1.083       .  S
C2026      C2029   1.447       .  S
C2026      C2027   1.402       .  A
C2027      C2028   1.401   1_565  A
C2027      H2035   1.083       .  S
C2028      H2036   1.083       .  S
C2029      C2030   1.210       .  T
C2031      C2032   1.210       .  T
C2037      C2045   1.452       .  S
C2037      C2038   1.403       .  A
C2037      C2042   1.404       .  A
C2038      C2039   1.404       .  A
C2038      H2047   1.083       .  S
C2039      C2040   1.403       .  A
C2039      H2048   1.083       .  S
C2040      C2043   1.451       .  S
C2040      C2041   1.404       .  A
C2041      C2042   1.403       .  A
C2041      H2049   1.083       .  S
C2042      H2050   1.083       .  S
C2043      C2044   1.213       .  T
C2045      C2046   1.213       .  T
C2051      C2059   1.446       .  S
C2051      C2052   1.402       .  A
C2051      C2056   1.403       .  A
C2052      C2053   1.400       .  A
C2052      H2061   1.083       .  S
C2053      C2054   1.402       .  A
C2053      H2062   1.083       .  S
C2054      C2057   1.445       .  S
C2054      C2055   1.403       .  A
C2055      C2056   1.402       .  A
C2055      H2063   1.083       .  S
C2056      H2064   1.083       .  S
C2057      C2058   1.209       .  T
C2059      C2060   1.210       .  T
C2065      C2073   1.452       .  S
C2065      C2066   1.404       .  A
C2065      C2070   1.403       .  A
C2066      C2067   1.404   1_545  A
C2066      H2075   1.083       .  S
C2067      C2068   1.403       .  A
C2067      H2076   1.083       .  S
C2068      C2071   1.451       .  S
C2068      C2069   1.403   1_565  A
C2069      C2070   1.403       .  A
C2069      H2077   1.083   1_545  S
C2070      H2078   1.083       .  S
C2071      C2072   1.213       .  T
C2073      C2074   1.213       .  T
C2079      C2087   1.447       .  S
C2079      C2080   1.402       .  A
C2079      C2084   1.403       .  A
C2080      C2081   1.402       .  A
C2080      H2089   1.083       .  S
C2081      C2082   1.403       .  A
C2081      H2090   1.083       .  S
C2082      C2085   1.447       .  S
C2082      C2083   1.402       .  A
C2083      C2084   1.402       .  A
C2083      H2091   1.083       .  S
C2084      H2092   1.083       .  S
C2085      C2086   1.210       .  T
C2087      C2088   1.211       .  T
C2093      C2101   1.455       .  S
C2093      C2094   1.403       .  A
C2093      C2098   1.405       .  A
C2094      C2095   1.403       .  A
C2094      H2103   1.083       .  S
C2095      C2096   1.403       .  A
C2095      H2104   1.083       .  S
C2096      C2099   1.454       .  S
C2096      C2097   1.405       .  A
C2097      C2098   1.406       .  A
C2097      H2105   1.083       .  S
C2098      H2106   1.083       .  S
C2099      C2100   1.215       .  T
C2101      C2102   1.215       .  T
C2107      C2115   1.447       .  S
C2107      C2108   1.403       .  A
C2107      C2112   1.402       .  A
C2108      C2109   1.403       .  A
C2108      H2117   1.083       .  S
C2109      C2110   1.403       .  A
C2109      H2118   1.083       .  S
C2110      C2113   1.446       .  S
C2110      C2111   1.402       .  A
C2111      C2112   1.400       .  A
C2111      H2119   1.083       .  S
C2112      H2120   1.083       .  S
C2113      C2114   1.210       .  T
C2115      C2116   1.210       .  T
C2121      C2129   1.440       .  S
C2121      C2122   1.401       .  A
C2121      C2126   1.401       .  A
C2122      C2123   1.399       .  A
C2122      H2131   1.083       .  S
C2123      C2124   1.401       .  A
C2123      H2132   1.083       .  S
C2124      C2127   1.440       .  S
C2124      C2125   1.401       .  A
C2125      C2126   1.399       .  A
C2125      H2133   1.083       .  S
C2126      H2134   1.083       .  S
C2127      C2128   1.206   1_556  T
C2129      C2130   1.206       .  T
C2135      C2143   1.437       .  S
C2135      C2136   1.400       .  A
C2135      C2140   1.401       .  A
C2136      C2137   1.397       .  A
C2136      H2145   1.083       .  S
C2137      C2138   1.400       .  A
C2137      H2146   1.084       .  S
C2138      C2141   1.437       .  S
C2138      C2139   1.401       .  A
C2139      C2140   1.399       .  A
C2139      H2147   1.083       .  S
C2140      H2148   1.083       .  S
C2141      C2142   1.204       .  T
C2143      C2144   1.204       .  T
C2149      C2157   1.452       .  S
C2149      C2150   1.403       .  A
C2149      C2154   1.403       .  A
C2150      C2151   1.403   1_545  A
C2150      H2159   1.083       .  S
C2151      C2152   1.403       .  A
C2151      H2160   1.083       .  S
C2152      C2155   1.453       .  S
C2152      C2153   1.404   1_565  A
C2153      C2154   1.404       .  A
C2153      H2161   1.083   1_545  S
C2154      H2162   1.083       .  S
C2155      C2156   1.214       .  T
C2157      C2158   1.213       .  T
C2163      C2171   1.445       .  S
C2163      C2164   1.402       .  A
C2163      C2168   1.403       .  A
C2164      C2165   1.401       .  A
C2164      H2173   1.083       .  S
C2165      C2166   1.403       .  A
C2165      H2174   1.083       .  S
C2166      C2169   1.445       .  S
C2166      C2167   1.401       .  A
C2167      C2168   1.400       .  A
C2167      H2175   1.083       .  S
C2168      H2176   1.083       .  S
C2169      C2170   1.209       .  T
C2171      C2172   1.209       .  T
