geometry optimzed in LAMMPS
_audit_creation_date              2020-12-01 
_audit_creation_method            'lammps2cif' 
_symmetry_space_group_name_H-M    'P1' 
_symmetry_Int_Tables_number       1 
_symmetry_cell_setting            triclinic 
loop_ 
_symmetry_equiv_pos_as_xyz 
  x,y,z 
_cell_length_a                    37.22621756 
_cell_length_b                    36.86614811823093 
_cell_length_c                    27.88312642077878 
_cell_angle_alpha                 90.33643189271797 
_cell_angle_beta                  89.97583956994447 
_cell_angle_gamma                 90.29424767990224 
loop_ 
_atom_site_label 
_atom_site_type_symbol 
_atom_site_fract_x 
_atom_site_fract_y 
_atom_site_fract_z 
_atom_site_charge 
O1          O  0.95883519  0.77302671  0.04427903    -0.71900
O2          O  0.03149460  0.84549497  0.03640394    -0.72100
O3          O  0.95944850  0.84509359  0.03677366    -0.72000
O4          O  0.03268793  0.77373249  0.04371027    -0.72000
O5          O  0.03118686  0.76782472  0.46791188    -0.71900
O6          O  0.96019998  0.84136541  0.46046632    -0.72000
O7          O  0.03234468  0.83976380  0.46044289    -0.71900
O8          O  0.95760321  0.76945984  0.46797444    -0.72100
V9          V  0.99558559  0.80895793  0.03882586     1.35200
V10         V  0.99532712  0.80439368  0.46573655     1.35200
C11         C  0.94365582  0.76120471  0.50789504     0.77300
C12         C  0.04467105  0.85473666  0.99646552     0.77400
C13         C  0.94761056  0.85585765  0.49806255     0.77300
C14         C  0.04610192  0.76038360  0.00581995     0.77200
O15         O  0.75868285  0.98540226  0.44168556    -0.71900
O16         O  0.83366623  0.05527333  0.44897981    -0.72100
O17         O  0.83017783  0.98257283  0.44649145    -0.72000
O18         O  0.76242958  0.05972121  0.44462462    -0.72000
O19         O  0.75953620  0.05819169  0.02206279    -0.71900
O20         O  0.82708273  0.98175530  0.02333241    -0.72000
O21         O  0.83079865  0.05433081  0.02599584    -0.71900
O22         O  0.75569412  0.98491019  0.01899100    -0.72100
V23         V  0.79592981  0.02074848  0.44687254     1.35200
V24         V  0.79313737  0.01977179  0.02101439     1.35200
C25         C  0.74577933  0.97177278  0.97914163     0.77300
C26         C  0.84496219  0.06689134  0.48895730     0.77400
C27         C  0.84035168  0.96922517  0.98496623     0.77300
C28         C  0.75105937  0.07348120  0.48350189     0.77200
O29         O  0.04191059  0.25948625  0.04142712    -0.71900
O30         O  0.96782829  0.18866264  0.03848951    -0.72100
O31         O  0.03984804  0.18742661  0.03708628    -0.72000
O32         O  0.96856165  0.26090464  0.04275959    -0.72000
O33         O  0.96735411  0.26179415  0.46538679    -0.71900
O34         O  0.04055643  0.19044964  0.46025251    -0.72000
O35         O  0.96856550  0.18972984  0.46137361    -0.71900
O36         O  0.04064814  0.26288090  0.46435303    -0.72100
V37         V  0.00455201  0.22443416  0.03844677     1.35200
V38         V  0.00426512  0.22644902  0.46435628     1.35200
C39         C  0.05560530  0.27129367  0.50361389     0.77300
C40         C  0.95569041  0.17689484  0.99904413     0.77400
C41         C  0.05234319  0.17617965  0.49823406     0.77300
C42         C  0.95379874  0.27186062  0.00466376     0.77200
O43         O  0.24243895  0.04779421  0.45076416    -0.71900
O44         O  0.16965567  0.97511643  0.45324199    -0.72100
O45         O  0.17073172  0.04824025  0.45145058    -0.72000
O46         O  0.24142686  0.97369883  0.45264929    -0.72000
O47         O  0.24017931  0.97418293  0.03005992    -0.71900
O48         O  0.17243720  0.05062438  0.02865839    -0.72000
O49         O  0.16889686  0.97803738  0.03016749    -0.71900
O50         O  0.24400926  0.04775858  0.02856901    -0.72100
V51         V  0.20629879  0.01123144  0.45345565     1.35200
V52         V  0.20656148  0.01262863  0.02779498     1.35200
C53         C  0.25433186  0.06149064  0.98946012     0.77300
C54         C  0.15681891  0.96426527  0.49268751     0.77400
C55         C  0.15973958  0.06249148  0.98975099     0.77300
C56         C  0.25125675  0.95971425  0.49188546     0.77200
C57         C  0.19241163  0.70113115  0.00146526     0.86400
C58         C  0.20492381  0.68112535  0.45705271    -0.53900
C59         C  0.24005285  0.67045130  0.45776049     0.09300
C60         C  0.26015803  0.68150907  0.00336557     0.20200
C61         C  0.20172036  0.67528510  0.04224460    -0.54600
C62         C  0.23677529  0.66462666  0.04337548     0.09400
C63         C  0.21918679  0.73262658  0.00658741    -0.54100
C64         C  0.25495720  0.72318911  0.00711322     0.10000
H65         H  0.18783434  0.67371266  0.42725354     0.14500
H66         H  0.28851035  0.67263086  0.00402168     0.00200
H67         H  0.18167092  0.66477611  0.06693069     0.14800
H68         H  0.20957338  0.76045195  0.50921760     0.14600
C69         C  0.30992769  0.81273428  0.49526273     0.86400
C70         C  0.33560053  0.80395869  0.03584151    -0.53900
C71         C  0.34463961  0.76827221  0.03936113     0.09300
C72         C  0.32586216  0.74360274  0.50149241     0.20200
C73         C  0.32838065  0.79696617  0.45041664    -0.54600
C74         C  0.33691815  0.76088792  0.45325237     0.09400
C75         C  0.27757606  0.78787168  0.50321290    -0.54100
C76         C  0.28487042  0.75148423  0.50609988     0.10000
H77         H  0.34730535  0.82480611  0.05878680     0.14500
H78         H  0.33323743  0.71460899  0.00455182     0.00200
H79         H  0.33682836  0.81302229  0.42010212     0.14800
H80         H  0.25073415  0.79899929  0.00381886     0.14600
O81         O  0.52198376  0.77377425  0.31202904    -0.71900
O82         O  0.46248005  0.77328408  0.20215721    -0.72100
O83         O  0.45132452  0.76649136  0.29638269    -0.72000
O84         O  0.53259813  0.78048320  0.21713602    -0.72000
O85         O  0.53562824  0.72238909  0.20466906    -0.71900
O86         O  0.46122532  0.70845411  0.29747314    -0.72000
O87         O  0.46346023  0.71435283  0.20082592    -0.71900
O88         O  0.53345539  0.71662413  0.30116534    -0.72100
V89         V  0.49227672  0.77236488  0.25699106     1.35200
V90         V  0.49836381  0.71638721  0.25116898     1.35200
C91         C  0.53884948  0.74569728  0.32453571     0.77300
C92         C  0.45204925  0.74381157  0.18343195     0.77400
C93         C  0.44272545  0.73531297  0.31117444     0.77300
C94         C  0.54665231  0.75409000  0.19507159     0.77200
C95         C  0.68407454  0.82765475  0.99668870     0.86400
C96         C  0.65952686  0.81350074  0.45668627    -0.53900
C97         C  0.64899202  0.77819098  0.46139031     0.09300
C98         C  0.66469135  0.75950287  0.00637794     0.20200
C99         C  0.66407435  0.81920256  0.04369736    -0.54600
C100        C  0.65291213  0.78412053  0.04833104     0.09400
C101        C  0.71545951  0.80102228  0.99683922    -0.54100
C102        C  0.70608120  0.76510226  0.00237054     0.10000
H103        H  0.64908021  0.83095550  0.42875025     0.14500
H104        H  0.65540816  0.73107475  0.01004557     0.00200
H105        H  0.65744948  0.83874032  0.07119125     0.14800
H106        H  0.74308900  0.81051200  0.49374638     0.14600
C107        C  0.79447049  0.70969681  0.51719541     0.86400
C108        C  0.77965681  0.69303004  0.06321454    -0.53900
C109        C  0.74371915  0.68478891  0.06191798     0.09300
C110        C  0.72552430  0.69436477  0.51431045     0.20200
C111        C  0.78384314  0.68231522  0.47816310    -0.54600
C112        C  0.74811080  0.67407488  0.47650054     0.09400
C113        C  0.77025437  0.74253669  0.50884060    -0.54100
C114        C  0.73399917  0.73525223  0.50721230     0.10000
H115        H  0.79617128  0.68482960  0.09307826     0.14500
H116        H  0.69666817  0.68693700  0.51307617     0.00200
H117        H  0.80330483  0.66959489  0.45447585     0.14800
H118        H  0.78158004  0.76986251  0.00564864     0.14600
C119        C  0.31625614  0.20706087  0.99821176     0.86400
C120        C  0.33894908  0.21852445  0.45501139    -0.53900
C121        C  0.34908285  0.25415313  0.45505956     0.09300
C122        C  0.33481306  0.27586009  0.99834885     0.20200
C123        C  0.33937107  0.21865536  0.04143987    -0.54600
C124        C  0.34937703  0.25438744  0.04151457     0.09400
C125        C  0.28461291  0.23318230  0.49919352    -0.54100
C126        C  0.29344897  0.26945283  0.99896609     0.10000
H127        H  0.34827284  0.19936459  0.42804564     0.14500
H128        H  0.34365539  0.30456563  0.49860506     0.00200
H129        H  0.34965733  0.20041433  0.06832303     0.14800
H130        H  0.25740858  0.22280599  0.50049396     0.14600
C131        C  0.20390478  0.32335918  0.49833653     0.86400
C132        C  0.21464692  0.34425252  0.04343625    -0.53900
C133        C  0.25023709  0.35295414  0.04677017     0.09300
C134        C  0.27245272  0.33996396  0.50313688     0.20200
C135        C  0.21712249  0.34767712  0.45739547    -0.54600
C136        C  0.25266408  0.35694064  0.46023014     0.09400
C137        C  0.22899632  0.29062801  0.49625437    -0.54100
C138        C  0.26509567  0.29856591  0.49913676     0.10000
H139        H  0.19504790  0.35284522  0.07000053     0.14500
H140        H  0.30122252  0.34750053  0.50508941     0.00200
H141        H  0.20006521  0.35948757  0.43031095     0.14800
H142        H  0.21805947  0.26354842  0.99254860     0.14600
O143        O  0.24302748  0.55215584  0.29391174    -0.71900
O144        O  0.24587534  0.46694951  0.21712017    -0.72100
O145        O  0.24831342  0.48113095  0.31131215    -0.72000
O146        O  0.24048220  0.53800396  0.19956988    -0.72000
O147        O  0.29778450  0.54908775  0.20252750    -0.71900
O148        O  0.30607903  0.47792402  0.30108674    -0.72000
O149        O  0.30274964  0.47623291  0.20428287    -0.71900
O150        O  0.30125362  0.55096799  0.29953342    -0.72100
V151        V  0.24545570  0.50962606  0.25541845     1.35200
V152        V  0.30111967  0.51352818  0.25191190     1.35200
C153        C  0.27163204  0.56501476  0.31169060     0.77300
C154        C  0.27452380  0.45800507  0.19585096     0.77400
C155        C  0.27826550  0.46849096  0.32413847     0.77300
C156        C  0.26756814  0.55440861  0.18289760     0.81200
O157        O  0.53977189  0.26365043  0.19692456    -0.71900
O158        O  0.47486910  0.25961169  0.30058726    -0.72100
O159        O  0.46904866  0.25857669  0.20452038    -0.72000
O160        O  0.54652359  0.26501411  0.29208770    -0.72000
O161        O  0.53934832  0.32333846  0.29755630    -0.71900
O162        O  0.46760516  0.31732478  0.19928291    -0.72000
O163        O  0.46639489  0.31774218  0.29628832    -0.71900
O164        O  0.54019569  0.32253147  0.20024530    -0.72100
V165        V  0.50738810  0.26293095  0.24873797     1.35200
V166        V  0.50345221  0.31929673  0.24848203     1.35200
C167        C  0.55140267  0.29343597  0.18102009     0.77300
C168        C  0.45863401  0.28753892  0.31530957     0.77400
C169        C  0.45643770  0.28661492  0.18496406     0.77300
C170        C  0.55618637  0.29510375  0.30990323     0.77200
C171        C  0.69424595  0.22122523  0.49552528     0.86400
C172        C  0.66927188  0.23155495  0.03726825    -0.53900
C173        C  0.65963744  0.26728084  0.03861045     0.09300
C174        C  0.67705616  0.29027526  0.49820489     0.20200
C175        C  0.67354971  0.23425583  0.45148762    -0.54600
C176        C  0.66443693  0.27020179  0.45209444     0.09400
C177        C  0.72622786  0.24694216  0.49981975    -0.54100
C178        C  0.71819697  0.28330530  0.50157010     0.10000
H179        H  0.65755642  0.21235987  0.06204315     0.14500
H180        H  0.66946102  0.31927273  0.49948110     0.00200
H181        H  0.66518966  0.21576625  0.42309877     0.14800
H182        H  0.75253409  0.23567866  0.00111048     0.14600
C183        C  0.80912139  0.33368508  0.01103350     0.86400
C184        C  0.80026296  0.35711578  0.46715176    -0.53900
C185        C  0.76535852  0.36817921  0.46482731     0.09300
C186        C  0.74155682  0.35357097  0.00650202     0.20200
C187        C  0.79676890  0.35716292  0.05373005    -0.54600
C188        C  0.76171871  0.36817106  0.05118760     0.09400
C189        C  0.78247543  0.30228196  0.00979044    -0.54100
C190        C  0.74689401  0.31165929  0.00662622     0.10000
H191        H  0.82030137  0.36515407  0.44095414     0.14500
H192        H  0.71364254  0.36295845  0.50457785     0.00200
H193        H  0.81437642  0.36722152  0.08172263     0.14800
H194        H  0.79286320  0.27511385  0.50982439     0.14600
O195        O  0.75702025  0.48781513  0.29872399    -0.71900
O196        O  0.74569459  0.56907940  0.21843621    -0.72100
O197        O  0.74944979  0.55841333  0.31291393    -0.72000
O198        O  0.75352939  0.49760745  0.20359048    -0.72000
O199        O  0.69679542  0.48499566  0.21097223    -0.71900
O200        O  0.69110540  0.55702839  0.31061907    -0.72000
O201        O  0.68839035  0.55809503  0.21344117    -0.71900
O202        O  0.69919138  0.48419293  0.30803370    -0.72100
V203        V  0.75026451  0.52804155  0.25825544     1.35200
V204        V  0.69474450  0.52119383  0.26062798     1.35200
C205        C  0.73031321  0.47357831  0.31949273     0.77300
C206        C  0.71534907  0.57707188  0.20143520     0.77400
C207        C  0.71978815  0.56867475  0.32998978     0.77300
C208        C  0.72640711  0.47970013  0.18958578     0.77200
C209        C  0.74865644  0.39857088  0.08188114    -0.05600
C210        C  0.71841606  0.39441734  0.11148395    -0.33000
C211        C  0.70921902  0.42146024  0.14526221     0.36200
C212        C  0.73059842  0.45308905  0.14968820    -0.05900
C213        C  0.75925340  0.45804844  0.11761635    -0.32900
C214        C  0.76834137  0.43128458  0.08415136     0.36100
H215        H  0.70301098  0.36949013  0.11003919     0.16500
O216        O  0.68105985  0.41545670  0.17596382    -0.60400
H217        H  0.77552740  0.48248216  0.11935476     0.16500
O218        O  0.79669677  0.43731370  0.05369043    -0.60500
H219        H  0.81856058  0.43532286  0.07377355     0.43500
H220        H  0.65926678  0.42184702  0.15748996     0.43500
C221        C  0.75406213  0.39636106  0.43004779    -0.05600
C222        C  0.72131844  0.39345241  0.40514028    -0.33000
C223        C  0.71231358  0.41882995  0.36954562     0.36200
C224        C  0.73657188  0.44701394  0.35810425    -0.05900
C225        C  0.76825942  0.45070175  0.38475665    -0.32900
C226        C  0.77691068  0.42615004  0.42062331     0.36100
H227        H  0.70320778  0.37103945  0.41238770     0.16500
O228        O  0.68069990  0.41485834  0.34482880    -0.60400
H229        H  0.78651144  0.47312680  0.37811428     0.16500
O230        O  0.80714360  0.43240268  0.44772949    -0.60500
H231        H  0.82774511  0.42929155  0.42557527     0.43500
H232        H  0.66278649  0.42879842  0.36359093     0.43500
C233        C  0.58693566  0.29630501  0.34351560    -0.05600
C234        C  0.58368024  0.31217010  0.38919502    -0.33000
C235        C  0.61011669  0.30642274  0.42454599     0.36200
C236        C  0.64057696  0.28509597  0.41385208    -0.05900
C237        C  0.64523504  0.27265942  0.36646963    -0.32900
C238        C  0.61871863  0.27781092  0.33176346     0.36100
H239        H  0.55950390  0.32683527  0.39856781     0.16500
O240        O  0.60484115  0.31997611  0.46990006    -0.60400
H241        H  0.66879603  0.25707207  0.35687111     0.16500
O242        O  0.62340404  0.26313600  0.28687364    -0.60500
H243        H  0.63332950  0.28314357  0.26719657     0.43500
H244        H  0.58449413  0.30589182  0.48334201     0.43500
C245        C  0.57666170  0.29264879  0.14010986    -0.05600
C246        C  0.57183213  0.26513524  0.10577641    -0.33000
C247        C  0.59752079  0.25867908  0.07056979     0.36200
C248        C  0.62951555  0.27926432  0.06970794    -0.05900
C249        C  0.63339942  0.30864041  0.10163206    -0.32900
C250        C  0.60709142  0.31546111  0.13690323     0.36100
H251        H  0.54840638  0.24761973  0.10716905     0.16500
O252        O  0.59184462  0.23086932  0.03845530    -0.60400
H253        H  0.65765598  0.32488679  0.10095275     0.16500
O254        O  0.61239680  0.34293666  0.16952950    -0.60500
H255        H  0.62542685  0.33167556  0.19659706     0.43500
H256        H  0.58071327  0.24229613  0.01008650     0.43500
C257        C  0.26641155  0.38798786  0.43218738    -0.05600
C258        C  0.29273279  0.38317722  0.39673373    -0.33000
C259        C  0.29937060  0.41059346  0.36289890     0.36200
C260        C  0.27937136  0.44298712  0.36467042    -0.05900
C261        C  0.25543245  0.44870384  0.40272547    -0.32900
C262        C  0.24909491  0.42170010  0.43645490     0.36100
H263        H  0.30623570  0.35738435  0.39327468     0.16500
O264        O  0.32331458  0.40437985  0.32640170    -0.60400
H265        H  0.24015179  0.47361018  0.40494806     0.16500
O266        O  0.22374960  0.42741273  0.47141120    -0.60500
H267        H  0.23663267  0.44029020  0.49764714     0.43500
H268        H  0.30894435  0.39316604  0.30020650     0.43500
C269        C  0.27422521  0.42786983  0.16079629    -0.05600
C270        C  0.29104485  0.43214763  0.11610925    -0.33000
C271        C  0.28572299  0.40660341  0.07920019     0.36200
C272        C  0.26354872  0.37606507  0.08704709    -0.05900
C273        C  0.24937070  0.37043618  0.13319373    -0.32900
C274        C  0.25410154  0.39623513  0.16960991     0.36100
H275        H  0.30643641  0.45651659  0.10875532     0.16500
O276        O  0.29948256  0.41364934  0.03460532    -0.60400
H277        H  0.23297824  0.34671171  0.14042500     0.16500
O278        O  0.23871050  0.39044970  0.21365735    -0.60500
H279        H  0.21311587  0.39716462  0.20985602     0.43500
H280        H  0.32515520  0.40681335  0.03645036     0.43500
C281        C  0.43062223  0.28254415  0.14492206    -0.05600
C282        C  0.39959728  0.30406958  0.14166142    -0.33000
C283        C  0.37327965  0.29650759  0.10655392     0.36200
C284        C  0.37816876  0.26738532  0.07430435    -0.05900
C285        C  0.41018035  0.24756648  0.07603993    -0.32900
C286        C  0.43629050  0.25510573  0.11049241     0.36100
H287        H  0.39501691  0.32554911  0.16759014     0.16500
O288        O  0.34236822  0.31656994  0.10546205    -0.60400
H289        H  0.41456778  0.22528427  0.05129627     0.16500
O290        O  0.46718368  0.23497483  0.11071946    -0.60500
H291        H  0.48360927  0.24752473  0.08817074     0.43500
H292        H  0.32467451  0.30266427  0.12471220     0.43500
C293        C  0.43166002  0.28373573  0.35408165    -0.05600
C294        C  0.43794062  0.25773553  0.38954041    -0.33000
C295        C  0.41166870  0.24916187  0.42338775     0.36200
C296        C  0.37823047  0.26683419  0.42273944    -0.05900
C297        C  0.37219190  0.29399449  0.38860795    -0.32900
C298        C  0.39863657  0.30242319  0.35413470     0.36100
H299        H  0.46318373  0.24322729  0.39034826     0.16500
O300        O  0.41884853  0.22315874  0.45699824    -0.60400
H301        H  0.34641655  0.30736857  0.38728485     0.16500
O302        O  0.39122910  0.32747041  0.31938681    -0.60500
H303        H  0.38074255  0.31332154  0.29240136     0.43500
H304        H  0.41660417  0.19962755  0.43982008     0.43500
C305        C  0.73450480  0.64477526  0.44462777    -0.05600
C306        C  0.70924595  0.65226146  0.40869764    -0.33000
C307        C  0.70198535  0.62662503  0.37231160     0.36200
C308        C  0.72002112  0.59311615  0.37208541    -0.05900
C309        C  0.74318826  0.58481576  0.41005970    -0.32900
C310        C  0.75037435  0.61022028  0.44620333     0.36100
H311        H  0.69701653  0.67878800  0.40710038     0.16500
O312        O  0.67926485  0.63552440  0.33556269    -0.60400
H313        H  0.75693254  0.55896186  0.41066079     0.16500
O314        O  0.77348406  0.60136040  0.48262963    -0.60500
H315        H  0.79780472  0.60165235  0.46812303     0.43500
H316        H  0.69486021  0.64651052  0.31065029     0.43500
C317        C  0.72699705  0.66177606  0.09950187    -0.05600
C318        C  0.70904307  0.62961578  0.08618145    -0.33000
C319        C  0.70190739  0.60260728  0.12026027     0.36200
C320        C  0.71266254  0.60780925  0.16817306    -0.05900
C321        C  0.72718312  0.64135966  0.18227073    -0.32900
C322        C  0.73411469  0.66839910  0.14841092     0.36100
H323        H  0.70324651  0.62407196  0.04877509     0.16500
O324        O  0.68721354  0.57017557  0.10568839    -0.60400
H325        H  0.73494607  0.64589250  0.21930089     0.16500
O326        O  0.74867348  0.70091692  0.16307757    -0.60500
H327        H  0.77325866  0.69528756  0.17449482     0.43500
H328        H  0.70790652  0.55501107  0.09576809     0.43500
C329        C  0.57392395  0.76079565  0.15743323    -0.05600
C330        C  0.60061554  0.73504403  0.14682073    -0.33000
C331        C  0.62655577  0.74184342  0.11117235     0.36200
C332        C  0.62553928  0.77442338  0.08511168    -0.05900
C333        C  0.59797854  0.79935578  0.09478304    -0.32900
C334        C  0.57268763  0.79300653  0.13057305     0.36100
H335        H  0.60181731  0.70999987  0.16686038     0.16500
O336        O  0.65306295  0.71690424  0.10291020    -0.60400
H337        H  0.59581209  0.82411545  0.07424985     0.16500
O338        O  0.54649430  0.81842305  0.13846263    -0.60500
H339        H  0.52663992  0.81166993  0.11636131     0.43500
H340        H  0.67341839  0.72471876  0.12354846     0.43500
C341        C  0.56457170  0.74798858  0.36492603    -0.05600
C342        C  0.55891681  0.77445831  0.40045661    -0.33000
C343        C  0.58540736  0.78240358  0.43436185     0.36200
C344        C  0.61840459  0.76398605  0.43301175    -0.05900
C345        C  0.62307179  0.73534501  0.40036154    -0.32900
C346        C  0.59628810  0.72716223  0.36633581     0.36100
H347        H  0.53431863  0.79005812  0.40091805     0.16500
O348        O  0.57920758  0.80882632  0.46823283    -0.60400
H349        H  0.64825731  0.72084433  0.39933402     0.16500
O350        O  0.60224013  0.70027550  0.33311202    -0.60500
H351        H  0.61781849  0.71147000  0.30832781     0.43500
H352        H  0.58181686  0.83220194  0.45111175     0.43500
C353        C  0.41166088  0.73153798  0.34361985    -0.05600
C354        C  0.41569445  0.71635722  0.38932787    -0.33000
C355        C  0.38964291  0.72239698  0.42513375     0.36200
C356        C  0.35899631  0.74346235  0.41478965    -0.05900
C357        C  0.35309301  0.75404584  0.36708877    -0.32900
C358        C  0.37927608  0.74872072  0.33194858     0.36100
H359        H  0.44038672  0.70261438  0.39854894     0.16500
O360        O  0.39573445  0.70985278  0.47058015    -0.60400
H361        H  0.32920171  0.76910660  0.35774074     0.16500
O362        O  0.37416513  0.76287571  0.28708857    -0.60500
H363        H  0.35802297  0.74538678  0.27047404     0.43500
H364        H  0.41475644  0.72589318  0.48414135     0.43500
C365        C  0.37454323  0.75717311  0.07134446    -0.05600
C366        C  0.36918562  0.73048240  0.10618460    -0.33000
C367        C  0.39536913  0.72386009  0.14136382     0.36200
C368        C  0.42708727  0.74478958  0.14238172    -0.05900
C369        C  0.43313292  0.77038413  0.10624583    -0.32900
C370        C  0.40751081  0.77623191  0.07052803     0.36100
H371        H  0.34375714  0.71661742  0.10807347     0.16500
O372        O  0.38882981  0.69852114  0.17616651    -0.60400
H373        H  0.45753379  0.78655863  0.10635905     0.16500
O374        O  0.41419057  0.80194233  0.03621854    -0.60500
H375        H  0.42942377  0.78969565  0.01188461     0.43500
H376        H  0.37150673  0.71005713  0.19846235     0.43500
C377        C  0.24827138  0.63451817  0.07490984    -0.05600
C378        C  0.22757150  0.60261016  0.07618790    -0.33000
C379        C  0.23489590  0.57539617  0.10945115     0.36200
C380        C  0.26320281  0.57992113  0.14257413    -0.05900
C381        C  0.28545409  0.61067305  0.13906994    -0.32900
C382        C  0.27824739  0.63768926  0.10518977     0.36100
H383        H  0.20519227  0.59903240  0.05173268     0.16500
O384        O  0.21452081  0.54426250  0.10892314    -0.60400
H385        H  0.30754356  0.61453052  0.16389956     0.16500
O386        O  0.29946492  0.66798593  0.10376530    -0.60500
H387        H  0.31978379  0.66120085  0.08256068     0.43500
H388        H  0.19140466  0.55094574  0.12427948     0.43500
C389        C  0.26979736  0.59477246  0.34705145    -0.05600
C390        C  0.28037695  0.58852132  0.39451922    -0.33000
C391        C  0.27272552  0.61387591  0.43081648     0.36200
C392        C  0.25478442  0.64636673  0.41954005    -0.05900
C393        C  0.24636957  0.65345427  0.37134357    -0.32900
C394        C  0.25321597  0.62771624  0.33541040     0.36100
H395        H  0.29243701  0.56285182  0.40402606     0.16500
O396        O  0.27949245  0.60484898  0.47756166    -0.60400
H397        H  0.23286861  0.67836675  0.36183148     0.16500
O398        O  0.24313460  0.63472281  0.28907569    -0.60500
H399        H  0.21729771  0.62810897  0.28738186     0.43500
H400        H  0.30567732  0.60851809  0.48190966     0.43500
C401        C  0.27168265  0.92512372  0.49324651    -0.05600
C402        C  0.27057734  0.90434607  0.03501265    -0.33000
C403        C  0.28346208  0.86875405  0.03579822     0.36200
C404        C  0.29899960  0.85297100  0.49451740    -0.05900
C405        C  0.30118599  0.87451772  0.45280891    -0.32900
C406        C  0.28777599  0.91003874  0.45202892     0.36100
H407        H  0.25822162  0.91509851  0.06724487     0.16500
O408        O  0.28033823  0.84937446  0.07749182    -0.60400
H409        H  0.31183143  0.86408958  0.41961545     0.16500
O410        O  0.28939057  0.92917536  0.41004762    -0.60500
H411        H  0.31161942  0.94400525  0.41250821     0.43500
H412        H  0.25499021  0.84099307  0.07852303     0.43500
C413        C  0.27594929  0.09534705  0.98917113    -0.05600
C414        C  0.27111747  0.11978350  0.45123696    -0.33000
C415        C  0.28432193  0.15532505  0.45421849     0.36200
C416        C  0.30399238  0.16721149  0.99496710    -0.05900
C417        C  0.31035056  0.14181231  0.03177199    -0.32900
C418        C  0.29650585  0.10639001  0.02908318     0.36100
H419        H  0.25488418  0.11218464  0.42049703     0.16500
O420        O  0.27699386  0.17872452  0.41742832    -0.60400
H421        H  0.32487476  0.14897724  0.06385601     0.16500
O422        O  0.30222859  0.08321450  0.06659700    -0.60500
H423        H  0.32305839  0.06822759  0.05673728     0.43500
H424        H  0.25175633  0.18634689  0.42241593     0.43500
C425        C  0.91936185  0.29210634  0.00587453    -0.05600
C426        C  0.89641988  0.28874871  0.46679507    -0.33000
C427        C  0.86137589  0.30215367  0.46845428     0.36200
C428        C  0.84826612  0.32044886  0.00973550    -0.05900
C429        C  0.87225076  0.32498717  0.04861654    -0.32900
C430        C  0.90724014  0.31079278  0.04700892     0.36100
H431        H  0.90465116  0.27362783  0.43524696     0.16500
O432        O  0.83893880  0.29506025  0.43041740    -0.60400
H433        H  0.86408056  0.33826738  0.08135171     0.16500
O434        O  0.92889379  0.31440354  0.08654204    -0.60500
H435        H  0.94316151  0.33674290  0.08089308     0.43500
H436        H  0.84785068  0.31043697  0.40384603     0.43500
C437        C  0.09085309  0.29003096  0.50453742    -0.05600
C438        C  0.11526467  0.28022771  0.03969478    -0.33000
C439        C  0.15123873  0.29101106  0.03756585     0.36200
C440        C  0.16394392  0.31264716  0.49972604    -0.05900
C441        C  0.13874349  0.32375282  0.46484701    -0.32900
C442        C  0.10263348  0.31256838  0.46708529     0.36100
H443        H  0.10699586  0.26233165  0.06840132     0.16500
O444        O  0.17431165  0.27887574  0.07228063    -0.60400
H445        H  0.14638981  0.34055668  0.43504576     0.16500
O446        O  0.07930527  0.32322537  0.43186803    -0.60500
H447        H  0.06769738  0.34541701  0.44465195     0.43500
H448        H  0.16904559  0.29374233  0.10117586     0.43500
C449        C  0.13252203  0.09190316  0.99046255    -0.05600
C450        C  0.11881207  0.10344312  0.53549049    -0.33000
C451        C  0.09307016  0.13084908  0.53836690     0.36200
C452        C  0.08003187  0.14724357  0.49625831    -0.05900
C453        C  0.09292730  0.13496540  0.95089186    -0.32900
C454        C  0.11867317  0.10733486  0.94812341     0.36100
H455        H  0.12808164  0.09134405  0.56853122     0.16500
O456        O  0.08047457  0.14083525  0.58272201    -0.60400
H457        H  0.08275666  0.14635343  0.91787343     0.16500
O458        O  0.13031354  0.09605923  0.90383554    -0.60500
H459        H  0.11304045  0.07691172  0.89376586     0.43500
H460        H  0.09765141  0.15947795  0.59455850     0.43500
C461        C  0.69542109  0.86737462  0.98871421    -0.05600
C462        C  0.68700368  0.89525953  0.02182894    -0.33000
C463        C  0.70074278  0.93030221  0.01676307     0.36200
C464        C  0.72313533  0.93877157  0.97790175    -0.05900
C465        C  0.72821250  0.91279569  0.44199556    -0.32900
C466        C  0.71463534  0.87738268  0.44687750     0.36100
H467        H  0.67038599  0.89090586  0.05275251     0.16500
O468        O  0.69339826  0.95572128  0.05149671    -0.60400
H469        H  0.74455345  0.91920416  0.41098090     0.16500
O470        O  0.72158634  0.85239845  0.41144312    -0.60500
H471        H  0.70458939  0.85810167  0.38521804     0.43500
H472        H  0.67158742  0.96838479  0.04011960     0.43500
C473        C  0.73174822  0.10866923  0.48429089    -0.05600
C474        C  0.73730084  0.13337893  0.44691542    -0.33000
C475        C  0.72536365  0.16931023  0.45057107     0.36200
C476        C  0.70595565  0.18126516  0.49141537    -0.05900
C477        C  0.70045303  0.15630260  0.02876544    -0.32900
C478        C  0.71325931  0.12067625  0.02568519     0.36100
H479        H  0.75280794  0.12548244  0.41569677     0.16500
O480        O  0.73344507  0.19283236  0.41411613    -0.60400
H481        H  0.68813319  0.16420484  0.06215710     0.16500
O482        O  0.70895257  0.09830761  0.06442955    -0.60500
H483        H  0.68677927  0.08413428  0.05762148     0.43500
H484        H  0.75845399  0.20095945  0.42031773     0.43500
C485        C  0.92748202  0.14856867  0.99727823    -0.05600
C486        C  0.92013403  0.13125660  0.45411842    -0.33000
C487        C  0.89352273  0.10460188  0.45064369     0.36200
C488        C  0.87378334  0.09449298  0.49164876    -0.05900
C489        C  0.88259220  0.11016872  0.03536504    -0.32900
C490        C  0.90930415  0.13685839  0.03886848     0.36100
H491        H  0.93503868  0.13835092  0.42210765     0.16500
O492        O  0.88765257  0.08815325  0.40707740    -0.60400
H493        H  0.86873931  0.10187789  0.06771122     0.16500
O494        O  0.91660906  0.15193395  0.08291434    -0.60500
H495        H  0.93298377  0.13459256  0.09882501     0.43500
H496        H  0.87086202  0.10436970  0.38992188     0.43500
C497        C  0.90821391  0.74223289  0.50974047    -0.05600
C498        C  0.88565514  0.74383373  0.46948649    -0.33000
C499        C  0.84948604  0.73335007  0.47206277     0.36200
C500        C  0.83477640  0.71960587  0.51517620    -0.05900
C501        C  0.85803158  0.71700782  0.05433169    -0.32900
C502        C  0.89420030  0.72805459  0.05157725     0.36100
H503        H  0.89546248  0.75526077  0.43622141     0.16500
O504        O  0.82843431  0.73719618  0.43202952    -0.60400
H505        H  0.84873329  0.70709283  0.08842989     0.16500
O506        O  0.91533010  0.72562420  0.09170115    -0.60500
H507        H  0.92802709  0.70218344  0.08837830     0.43500
H508        H  0.82233843  0.76332545  0.43085245     0.43500
C509        C  0.15280532  0.71358514  0.00342613    -0.05600
C510        C  0.12812655  0.70667586  0.96587907    -0.33000
C511        C  0.09280742  0.71979592  0.96747080     0.36200
C512        C  0.08080735  0.74033333  0.00704003    -0.05900
C513        C  0.10480955  0.74655028  0.54697914    -0.32900
C514        C  0.14021361  0.73351505  0.54534990     0.36100
H515        H  0.13550235  0.69159509  0.93428666     0.16500
O516        O  0.07057103  0.71317544  0.92916591    -0.60400
H517        H  0.09667381  0.76289469  0.57748691     0.16500
O518        O  0.16290956  0.74171537  0.58268386    -0.60500
H519        H  0.15690899  0.72404054  0.60815506     0.43500
H520        H  0.05611466  0.69166854  0.93839792     0.43500
C521        C  0.91995924  0.88466387  0.49513964    -0.05600
C522        C  0.90716815  0.89583511  0.94893821    -0.33000
C523        C  0.88115846  0.92304729  0.94515958     0.36200
C524        C  0.86744952  0.93984722  0.98688211    -0.05900
C525        C  0.88030381  0.92871357  0.53285753    -0.32900
C526        C  0.90625755  0.90164832  0.53673067     0.36100
H527        H  0.91730838  0.88344037  0.91635002     0.16500
O528        O  0.86973719  0.93316254  0.90045873    -0.60400
H529        H  0.87036108  0.94120126  0.56549500     0.16500
O530        O  0.91778065  0.89199525  0.58156775    -0.60500
H531        H  0.93799590  0.90877458  0.58894637     0.43500
H532        H  0.84959033  0.91643030  0.89265948     0.43500
C533        C  0.07349423  0.88255085  0.99424921    -0.05600
C534        C  0.08400367  0.90034081  0.03666687    -0.33000
C535        C  0.11102755  0.92672451  0.03645790     0.36200
C536        C  0.12820682  0.93616563  0.49416167    -0.05900
C537        C  0.11733716  0.91866494  0.45162316    -0.32900
C538        C  0.09029060  0.89210497  0.45205291     0.36100
H539        H  0.07122616  0.89384922  0.07048340     0.16500
O540        O  0.12003198  0.94334021  0.07895395    -0.60400
H541        H  0.12992735  0.92542251  0.41777291     0.16500
O542        O  0.08123174  0.87513027  0.40982194    -0.60500
H543        H  0.06366099  0.89140698  0.39427743     0.43500
H544        H  0.13814517  0.92727605  0.09381851     0.43500
O545        O  0.95867515  0.77305593  0.54563396    -0.71900
O546        O  0.03141369  0.84554774  0.53787152    -0.72100
O547        O  0.95935777  0.84513245  0.53807977    -0.72000
O548        O  0.03256453  0.77379460  0.54532542    -0.72000
O549        O  0.03105168  0.76763775  0.96632653    -0.71900
O550        O  0.96038296  0.84155939  0.95914624    -0.72000
O551        O  0.03254296  0.83960666  0.95898799    -0.71900
O552        O  0.95743910  0.76966179  0.96661291    -0.72100
V553        V  0.99546619  0.80900145  0.54026636     1.35200
V554        V  0.99534974  0.80440388  0.96429602     1.35200
C555        C  0.94362243  0.76134830  0.00660141     0.77300
C556        C  0.04452896  0.85485164  0.49791170     0.77400
C557        C  0.94774155  0.85594385  0.99678727     0.77300
C558        C  0.04612582  0.76055430  0.50747178     0.77200
O559        O  0.75852803  0.98535659  0.94120857    -0.71900
O560        O  0.83328827  0.05542825  0.94830336    -0.72100
O561        O  0.83004691  0.98267809  0.94567271    -0.72000
O562        O  0.76203774  0.05966758  0.94436109    -0.72000
O563        O  0.75941111  0.05815167  0.52230171    -0.71900
O564        O  0.82730533  0.98202380  0.52416767    -0.72000
O565        O  0.83068398  0.05459436  0.52666497    -0.71900
O566        O  0.75595842  0.98487323  0.51945931    -0.72100
V567        V  0.79567211  0.02077837  0.94631753     1.35200
V568        V  0.79319858  0.01988418  0.52156443     1.35200
C569        C  0.74600750  0.97174825  0.47962674     0.77300
C570        C  0.84479950  0.06689012  0.98824177     0.77400
C571        C  0.84052524  0.96931601  0.48587112     0.77300
C572        C  0.75092966  0.07349060  0.98334550     0.77200
O573        O  0.04207580  0.25930874  0.54202925    -0.71900
O574        O  0.96774056  0.18879153  0.53915737    -0.72100
O575        O  0.03974772  0.18720998  0.53785270    -0.72000
O576        O  0.96876382  0.26105099  0.54317677    -0.72000
O577        O  0.96717039  0.26194215  0.96497690    -0.71900
O578        O  0.04042112  0.19058807  0.95947742    -0.72000
O579        O  0.96838983  0.18991690  0.96072481    -0.71900
O580        O  0.04053389  0.26302063  0.96374793    -0.72100
V581        V  0.00460246  0.22439971  0.53906747     1.35200
V582        V  0.00411827  0.22660317  0.96374405     1.35200
C583        C  0.05548688  0.27143382  0.00301393     0.77300
C584        C  0.95574550  0.17687156  0.49971901     0.77400
C585        C  0.05238723  0.17641859  0.99743578     0.77300
C586        C  0.95405158  0.27194147  0.50500472     0.77200
O587        O  0.24254251  0.04785599  0.95074777    -0.71900
O588        O  0.16957530  0.97536512  0.95247211    -0.72100
O589        O  0.17085824  0.04849315  0.95096240    -0.72000
O590        O  0.24131365  0.97375055  0.95228714    -0.72000
O591        O  0.24052128  0.97429427  0.53042868    -0.71900
O592        O  0.17258000  0.05053305  0.52913322    -0.72000
O593        O  0.16920529  0.97795357  0.53092834    -0.71900
O594        O  0.24418779  0.04783409  0.52857800    -0.72100
V595        V  0.20630602  0.01138482  0.95305047     1.35200
V596        V  0.20679871  0.01263292  0.52819428     1.35200
C597        C  0.25438676  0.06148137  0.48935480     0.77300
C598        C  0.15661730  0.96444572  0.99181110     0.77400
C599        C  0.15969822  0.06226999  0.49026893     0.77300
C600        C  0.25096131  0.95963146  0.99151252     0.77200
C601        C  0.19241516  0.70141077  0.50267078     0.86400
C602        C  0.20519712  0.68090377  0.95594575    -0.53900
C603        C  0.24035479  0.67028466  0.95701641     0.09300
C604        C  0.26013571  0.68169312  0.50387717     0.20200
C605        C  0.20193634  0.67560948  0.54341262    -0.54600
C606        C  0.23698315  0.66485513  0.54414773     0.09400
C607        C  0.21923634  0.73288180  0.50747205    -0.54100
C608        C  0.25498703  0.72339307  0.50766448     0.10000
H609        H  0.18825103  0.67349496  0.92598769     0.14500
H610        H  0.28847004  0.67275920  0.50420426     0.00200
H611        H  0.18200550  0.66515299  0.56830631     0.14800
H612        H  0.20946903  0.76017721  0.00827452     0.14600
C613        C  0.30973776  0.81263887  0.99505721     0.86400
C614        C  0.33596699  0.80391459  0.53577244    -0.53900
C615        C  0.34489766  0.76818901  0.53912152     0.09300
C616        C  0.32590016  0.74358134  0.00158458     0.20200
C617        C  0.32848656  0.79690068  0.95039172    -0.54600
C618        C  0.33719482  0.76088441  0.95345552     0.09400
C619        C  0.27744316  0.78767960  0.00274920    -0.54100
C620        C  0.28482788  0.75132445  0.00577081     0.10000
H621        H  0.34783986  0.82468941  0.55867961     0.14500
H622        H  0.33305302  0.71460156  0.50440904     0.00200
H623        H  0.33700728  0.81292533  0.92006651     0.14800
H624        H  0.25090212  0.79926408  0.50455517     0.14600
O625        O  0.52262117  0.77406236  0.81146344    -0.71900
O626        O  0.46246421  0.77344470  0.70218619    -0.72100
O627        O  0.45189919  0.76677051  0.79666305    -0.72000
O628        O  0.53265451  0.78065624  0.71635722    -0.72000
O629        O  0.53570021  0.72251946  0.70422729    -0.71900
O630        O  0.46173357  0.70871527  0.79759471    -0.72000
O631        O  0.46357841  0.71451747  0.70084745    -0.71900
O632        O  0.53391056  0.71685340  0.80077582    -0.72100
V633        V  0.49259143  0.77259235  0.75673057     1.35200
V634        V  0.49864841  0.71659768  0.75098696     1.35200
C635        C  0.53937775  0.74594302  0.82407535     0.77300
C636        C  0.45208117  0.74394744  0.68346971     0.77400
C637        C  0.44341362  0.73560088  0.81161310     0.77300
C638        C  0.54661104  0.75419469  0.69431670     0.77200
C639        C  0.68438842  0.82736717  0.49642871     0.86400
C640        C  0.65899741  0.81367940  0.95729448    -0.53900
C641        C  0.64852032  0.77838727  0.96225533     0.09300
C642        C  0.66489408  0.75919581  0.50560113     0.20200
C643        C  0.66394787  0.81880014  0.54307324    -0.54600
C644        C  0.65279726  0.78371658  0.54745430     0.09400
C645        C  0.71574970  0.80071606  0.49678511    -0.54100
C646        C  0.70631663  0.76478851  0.50211805     0.10000
H647        H  0.64851331  0.83102097  0.92925628     0.14500
H648        H  0.65556933  0.73076514  0.50905874     0.00200
H649        H  0.65665124  0.83830385  0.57026774     0.14800
H650        H  0.74277369  0.81081963  0.99346301     0.14600
C651        C  0.79435259  0.71020479  0.01686541     0.86400
C652        C  0.77965146  0.69268362  0.56355423    -0.53900
C653        C  0.74370907  0.68452894  0.56218301     0.09300
C654        C  0.72544421  0.69468354  0.01413221     0.20200
C655        C  0.78372559  0.68291500  0.97775232    -0.54600
C656        C  0.74802988  0.67451072  0.97620087     0.09400
C657        C  0.77005434  0.74299110  0.00874779    -0.54100
C658        C  0.73381822  0.73561223  0.00719850     0.10000
H659        H  0.79609097  0.68446451  0.59348143     0.14500
H660        H  0.69659976  0.68720324  0.01293789     0.00200
H661        H  0.80320095  0.67030326  0.95398387     0.14800
H662        H  0.78184063  0.76937198  0.50560241     0.14600
C663        C  0.31629690  0.20700721  0.49825521     0.86400
C664        C  0.33874921  0.21853788  0.95477664    -0.53900
C665        C  0.34886599  0.25417135  0.95468595     0.09300
C666        C  0.33481787  0.27581921  0.49861251     0.20200
C667        C  0.33920749  0.21860133  0.54169664    -0.54600
C668        C  0.34918618  0.25433524  0.54187711     0.09400
C669        C  0.28459846  0.23324438  0.99937624    -0.54100
C670        C  0.29345080  0.26940017  0.49889253     0.10000
H671        H  0.34803501  0.19934713  0.92782538     0.14500
H672        H  0.34364798  0.30460736  0.99822854     0.00200
H673        H  0.34939495  0.20038216  0.56866898     0.14800
H674        H  0.25739812  0.22287425  0.00090748     0.14600
C675        C  0.20390056  0.32337203  0.99804150     0.86400
C676        C  0.21478807  0.34411756  0.54377308    -0.53900
C677        C  0.25039308  0.35279054  0.54695633     0.09300
C678        C  0.27243561  0.34001497  0.00312238     0.20200
C679        C  0.21723972  0.34757171  0.95703611    -0.54600
C680        C  0.25277871  0.35684513  0.96001194     0.09400
C681        C  0.22900645  0.29065187  0.99623166    -0.54100
C682        C  0.26509567  0.29860883  0.99923710     0.10000
H683        H  0.19526578  0.35267179  0.57045926     0.14500
H684        H  0.30119858  0.34757156  0.00520395     0.00200
H685        H  0.20026587  0.35927268  0.92977372     0.14800
H686        H  0.21803283  0.26352934  0.49259124     0.14600
O687        O  0.24403371  0.55208225  0.79366965    -0.71900
O688        O  0.24666810  0.46676104  0.71715816    -0.72100
O689        O  0.24916913  0.48108730  0.81125841    -0.72000
O690        O  0.24138193  0.53776353  0.69944970    -0.72000
O691        O  0.29870111  0.54875072  0.70218628    -0.71900
O692        O  0.30692492  0.47773549  0.80103090    -0.72000
O693        O  0.30355646  0.47589179  0.70423560    -0.71900
O694        O  0.30226409  0.55081744  0.79920191    -0.72100
V695        V  0.24635294  0.50948776  0.75532266     1.35200
V696        V  0.30202179  0.51327695  0.75172501     1.35200
C697        C  0.27267438  0.56493937  0.81133583     0.77300
C698        C  0.27528484  0.45771962  0.69589373     0.77400
C699        C  0.27908186  0.46837524  0.82408825     0.77300
C700        C  0.26845049  0.55409912  0.68264167     0.81200
O701        O  0.54006020  0.26365365  0.69691793    -0.71900
O702        O  0.47512167  0.25946738  0.80061797    -0.72100
O703        O  0.46928682  0.25832737  0.70451196    -0.72000
O704        O  0.54677706  0.26518507  0.79207012    -0.72000
O705        O  0.53926845  0.32347069  0.79751292    -0.71900
O706        O  0.46773061  0.31707058  0.69914334    -0.72000
O707        O  0.46635601  0.31754129  0.79604841    -0.71900
O708        O  0.54036460  0.32253342  0.70027002    -0.72100
V709        V  0.50764336  0.26286555  0.74873075     1.35200
V710        V  0.50350123  0.31921277  0.74837241     1.35200
C711        C  0.55171538  0.29346424  0.68111211     0.77300
C712        C  0.45869684  0.28733888  0.81514983     0.77400
C713        C  0.45655915  0.28632941  0.68498286     0.77300
C714        C  0.55626002  0.29534545  0.80985666     0.77200
C715        C  0.69374298  0.22113765  0.99509317     0.86400
C716        C  0.66989948  0.23181973  0.53776155    -0.53900
C717        C  0.66020566  0.26753077  0.53883568     0.09300
C718        C  0.67667223  0.29019993  0.99831358     0.20200
C719        C  0.67314769  0.23442161  0.95109141    -0.54600
C720        C  0.66417103  0.27040339  0.95197587     0.09400
C721        C  0.72575509  0.24676336  0.99968882    -0.54100
C722        C  0.71776766  0.28312177  0.00181000     0.10000
H723        H  0.65835217  0.21281338  0.56290510     0.14500
H724        H  0.66911915  0.31920371  0.99980084     0.00200
H725        H  0.66473218  0.21611340  0.92252933     0.14800
H726        H  0.75301708  0.23590444  0.50142342     0.14600
C727        C  0.80952874  0.33402603  0.51079221     0.86400
C728        C  0.79984340  0.35651947  0.96716153    -0.53900
C729        C  0.76496052  0.36761720  0.96478225     0.09300
C730        C  0.74193766  0.35382875  0.50638839     0.20200
C731        C  0.79709778  0.35719709  0.55371858    -0.54600
C732        C  0.76205968  0.36819401  0.55122926     0.09400
C733        C  0.78293201  0.30258268  0.50913424    -0.54100
C734        C  0.74732142  0.31190873  0.50614807     0.10000
H735        H  0.81987438  0.36444966  0.94089194     0.14500
H736        H  0.71327915  0.36274192  0.00458883     0.00200
H737        H  0.81464874  0.36713965  0.58183896     0.14800
H738        H  0.79234551  0.27479600  0.01081235     0.14600
O739        O  0.75718408  0.48751123  0.79911248    -0.71900
O740        O  0.74609775  0.56883097  0.71884790    -0.72100
O741        O  0.74969907  0.55812956  0.81333046    -0.72000
O742        O  0.75389944  0.49736351  0.70402503    -0.72000
O743        O  0.69713387  0.48481881  0.71119820    -0.71900
O744        O  0.69136055  0.55680852  0.81091369    -0.72000
O745        O  0.68878786  0.55789039  0.71374002    -0.71900
O746        O  0.69932842  0.48394144  0.80820609    -0.72100
V747        V  0.75056283  0.52777537  0.75867418     1.35200
V748        V  0.69502945  0.52098593  0.76088532     1.35200
C749        C  0.73040755  0.47324856  0.81969516     0.77300
C750        C  0.71577369  0.57682563  0.70177298     0.77400
C751        C  0.72003254  0.56843652  0.83034509     0.77300
C752        C  0.72678638  0.47949439  0.68992438     0.77200
C753        C  0.74906459  0.39852173  0.58206225    -0.05600
C754        C  0.71882207  0.39432913  0.61163366    -0.33000
C755        C  0.70964421  0.42130106  0.64551334     0.36200
C756        C  0.73103514  0.45290959  0.65003120    -0.05900
C757        C  0.75975708  0.45787905  0.61806814    -0.32900
C758        C  0.76884556  0.43117083  0.58453833     0.36100
H759        H  0.70339988  0.36942124  0.61008243     0.16500
O760        O  0.68151987  0.41523490  0.67625661    -0.60400
H761        H  0.77607630  0.48227752  0.61993580     0.16500
O762        O  0.79729710  0.43718630  0.55422305    -0.60500
H763        H  0.81910251  0.43511669  0.57440224     0.43500
H764        H  0.65963055  0.42058466  0.65740154     0.43500
C765        C  0.75376203  0.39577791  0.92997017    -0.05600
C766        C  0.72119032  0.39278371  0.90468360    -0.33000
C767        C  0.71231628  0.41822602  0.86911478     0.36200
C768        C  0.73652542  0.44656723  0.85815850    -0.05900
C769        C  0.76804141  0.45028911  0.88513877    -0.32900
C770        C  0.77657589  0.42564981  0.92092014     0.36100
H771        H  0.70313151  0.37026926  0.91162239     0.16500
O772        O  0.68091475  0.41416806  0.84394006    -0.60400
H773        H  0.78625284  0.47280064  0.87880897     0.16500
O774        O  0.80668177  0.43186683  0.94828378    -0.60500
H775        H  0.82738256  0.42872801  0.92630438     0.43500
H776        H  0.66274261  0.42783406  0.86264319     0.43500
C777        C  0.58698486  0.29678239  0.84342467    -0.05600
C778        C  0.58353105  0.31243258  0.88919653    -0.33000
C779        C  0.60993892  0.30670523  0.92455755     0.36200
C780        C  0.64052046  0.28559228  0.91377425    -0.05900
C781        C  0.64542922  0.27352253  0.86628487    -0.32900
C782        C  0.61895558  0.27867738  0.83154342     0.36100
H783        H  0.55921841  0.32684608  0.89862904     0.16500
O784        O  0.60447608  0.31997333  0.97001453    -0.60400
H785        H  0.66911003  0.25812834  0.85666023     0.16500
O786        O  0.62383506  0.26430013  0.78652509    -0.60500
H787        H  0.63299835  0.28467681  0.76685716     0.43500
H788        H  0.58450154  0.30536158  0.98343757     0.43500
C789        C  0.57714710  0.29274044  0.64035716    -0.05600
C790        C  0.57225953  0.26547259  0.60569168    -0.33000
C791        C  0.59800511  0.25908934  0.57051529     0.36200
C792        C  0.63009030  0.27953237  0.56994852    -0.05900
C793        C  0.63411713  0.30859748  0.60233005    -0.32900
C794        C  0.60777826  0.31531679  0.63762445     0.36100
H795        H  0.54873287  0.24808230  0.60679703     0.16500
O796        O  0.59232857  0.23141775  0.53819422    -0.60400
H797        H  0.65850299  0.32464524  0.60199720     0.16500
O798        O  0.61321311  0.34243966  0.67073010    -0.60500
H799        H  0.62843856  0.33154774  0.69595104     0.43500
H800        H  0.58152583  0.24302415  0.50971085     0.43500
C801        C  0.26662562  0.38781939  0.93192417    -0.05600
C802        C  0.29308047  0.38295863  0.89665131    -0.33000
C803        C  0.29992606  0.41038452  0.86288856     0.36200
C804        C  0.28005105  0.44285618  0.86461200    -0.05900
C805        C  0.25596323  0.44859393  0.90249898    -0.32900
C806        C  0.24936058  0.42155912  0.93608103     0.36100
H807        H  0.30654520  0.35713653  0.89328119     0.16500
O808        O  0.32395251  0.40412313  0.82650107    -0.60400
H809        H  0.24073713  0.47353749  0.90465519     0.16500
O810        O  0.22380676  0.42728411  0.97076332    -0.60500
H811        H  0.23667416  0.43952305  0.99749805     0.43500
H812        H  0.30975247  0.39237811  0.80055722     0.43500
C813        C  0.27488071  0.42755737  0.66091585    -0.05600
C814        C  0.29166017  0.43176508  0.61619785    -0.33000
C815        C  0.28612832  0.40628130  0.57928453     0.36200
C816        C  0.26384519  0.37583376  0.58719981    -0.05900
C817        C  0.24971849  0.37025227  0.63338491    -0.32900
C818        C  0.25460302  0.39603308  0.66977671     0.36100
H819        H  0.30713865  0.45607128  0.60880300     0.16500
O820        O  0.29974010  0.41334559  0.53461507    -0.60400
H821        H  0.23322859  0.34660467  0.64066069     0.16500
O822        O  0.23916587  0.39036686  0.71382302    -0.60500
H823        H  0.21366211  0.39744778  0.71007666     0.43500
H824        H  0.32543616  0.40653509  0.53631343     0.43500
C825        C  0.43055943  0.28225422  0.64518095    -0.05600
C826        C  0.39921902  0.30337128  0.64269363    -0.33000
C827        C  0.37282394  0.29588838  0.60767530     0.36200
C828        C  0.37795927  0.26727307  0.57471597    -0.05900
C829        C  0.41021832  0.24783104  0.57577152    -0.32900
C830        C  0.43640030  0.25528492  0.61017660     0.36100
H831        H  0.39449187  0.32446820  0.66912185     0.16500
O832        O  0.34163987  0.31553662  0.60730198    -0.60400
H833        H  0.41475032  0.22591570  0.55050958     0.16500
O834        O  0.46755337  0.23556606  0.60975270    -0.60500
H835        H  0.48379800  0.24872607  0.58757189     0.43500
H836        H  0.32417608  0.30106063  0.62621167     0.43500
C837        C  0.43156539  0.28351841  0.85373169    -0.05600
C838        C  0.43799488  0.25804474  0.88980978    -0.33000
C839        C  0.41164749  0.24956406  0.92362014     0.36200
C840        C  0.37798996  0.26678067  0.92227786    -0.05900
C841        C  0.37173160  0.29331927  0.88737399    -0.32900
C842        C  0.39825083  0.30166393  0.85297226     0.36100
H843        H  0.46342554  0.24389950  0.89116045     0.16500
O844        O  0.41895574  0.22406769  0.95784645    -0.60400
H845        H  0.34576062  0.30626466  0.88543672     0.16500
O846        O  0.39065363  0.32606629  0.81750157    -0.60500
H847        H  0.38119842  0.31127187  0.79041478     0.43500
H848        H  0.41652810  0.20029201  0.94131767     0.43500
C849        C  0.73458828  0.64493547  0.94461697    -0.05600
C850        C  0.70862061  0.65180439  0.90936408    -0.33000
C851        C  0.70139652  0.62597343  0.87318665     0.36200
C852        C  0.72027897  0.59294085  0.87240840    -0.05900
C853        C  0.74413601  0.58518997  0.90982641    -0.32900
C854        C  0.75119017  0.61072276  0.94584101     0.36100
H855        H  0.69572347  0.67801099  0.90812799     0.16500
O856        O  0.67777224  0.63423611  0.83719476    -0.60400
H857        H  0.75845658  0.55965508  0.91012600     0.16500
O858        O  0.77481684  0.60230081  0.98186791    -0.60500
H859        H  0.79896246  0.60273331  0.96686850     0.43500
H860        H  0.69260359  0.64560506  0.81177230     0.43500
C861        C  0.72698927  0.66151681  0.59974037    -0.05600
C862        C  0.70935154  0.62918896  0.58640939    -0.33000
C863        C  0.70244451  0.60213988  0.62049671     0.36200
C864        C  0.71308783  0.60748370  0.66842549    -0.05900
C865        C  0.72731498  0.64115292  0.68252818    -0.32900
C866        C  0.73402506  0.66823144  0.64865180     0.36100
H867        H  0.70366565  0.62356333  0.54899321     0.16500
O868        O  0.68809872  0.56954872  0.60592644    -0.60400
H869        H  0.73499413  0.64577308  0.71957181     0.16500
O870        O  0.74833405  0.70086931  0.66328784    -0.60500
H871        H  0.77297070  0.69544355  0.67468468     0.43500
H872        H  0.70896712  0.55454256  0.59626761     0.43500
C873        C  0.57367543  0.76071879  0.65639097    -0.05600
C874        C  0.60036654  0.73493545  0.64594359    -0.33000
C875        C  0.62624359  0.74156500  0.61018093     0.36200
C876        C  0.62514386  0.77398318  0.58381958    -0.05900
C877        C  0.59745650  0.79886157  0.59313992    -0.32900
C878        C  0.57225648  0.79271133  0.62911113     0.36100
H879        H  0.60166745  0.71003230  0.66627305     0.16500
O880        O  0.65282817  0.71666646  0.60216512    -0.60400
H881        H  0.59522489  0.82348722  0.57234026     0.16500
O882        O  0.54605037  0.81813870  0.63687294    -0.60500
H883        H  0.52621443  0.81132959  0.61480031     0.43500
H884        H  0.67282765  0.72414395  0.62361393     0.43500
C885        C  0.56488744  0.74815479  0.86471062    -0.05600
C886        C  0.55883976  0.77435025  0.90047496    -0.33000
C887        C  0.58503248  0.78219222  0.93482820     0.36200
C888        C  0.61812738  0.76395550  0.93370091    -0.05900
C889        C  0.62318048  0.73556099  0.90076831    -0.32900
C890        C  0.59667856  0.72745667  0.86631332     0.36100
H891        H  0.53416287  0.78982479  0.90078797     0.16500
O892        O  0.57848715  0.80841398  0.96885365    -0.60400
H893        H  0.64847355  0.72125491  0.89983466     0.16500
O894        O  0.60300505  0.70082250  0.83286212    -0.60500
H895        H  0.61817615  0.71244714  0.80798800     0.43500
H896        H  0.58121169  0.83188866  0.95200234     0.43500
C897        C  0.41260791  0.73181345  0.84447963    -0.05600
C898        C  0.41719792  0.71771937  0.89070310    -0.33000
C899        C  0.39102414  0.72366476  0.92639628     0.36200
C900        C  0.35974477  0.74356624  0.91544222    -0.05900
C901        C  0.35352171  0.75322769  0.86747351    -0.32900
C902        C  0.37975948  0.74791741  0.83241620     0.36100
H903        H  0.44229035  0.70486856  0.90026532     0.16500
O904        O  0.39746907  0.71215371  0.97225809    -0.60400
H905        H  0.32924269  0.76752665  0.85780475     0.16500
O906        O  0.37408393  0.76094783  0.78710081    -0.60500
H907        H  0.36397122  0.74013254  0.76882308     0.43500
H908        H  0.41715269  0.72787748  0.98456006     0.43500
C909        C  0.37482018  0.75694531  0.57096373    -0.05600
C910        C  0.36940911  0.73031300  0.60585022    -0.33000
C911        C  0.39551383  0.72380859  0.64122759     0.36200
C912        C  0.42716246  0.74484011  0.64234518    -0.05900
C913        C  0.43332325  0.77026750  0.60602288    -0.32900
C914        C  0.40782368  0.77592606  0.57010076     0.36100
H915        H  0.34399572  0.71640661  0.60762044     0.16500
O916        O  0.38913879  0.69831629  0.67593587    -0.60400
H917        H  0.45773690  0.78642014  0.60611191     0.16500
O918        O  0.41468109  0.80136395  0.53550589    -0.60500
H919        H  0.42807138  0.78827216  0.51002412     0.43500
H920        H  0.36828678  0.70733029  0.69445035     0.43500
C921        C  0.24859151  0.63456299  0.57532847    -0.05600
C922        C  0.22743976  0.60298218  0.57722784    -0.33000
C923        C  0.23495144  0.57560748  0.61015555     0.36200
C924        C  0.26394736  0.57960774  0.64232627    -0.05900
C925        C  0.28666521  0.60995356  0.63805252    -0.32900
C926        C  0.27924861  0.63714288  0.60448032     0.36100
H927        H  0.20455106  0.59978350  0.55354028     0.16500
O928        O  0.21400099  0.54486257  0.61029837    -0.60400
H929        H  0.30928773  0.61340640  0.66211145     0.16500
O930        O  0.30091355  0.66709241  0.60240544    -0.60500
H931        H  0.32110341  0.65982281  0.58124757     0.43500
H932        H  0.19127494  0.55199622  0.62633901     0.43500
C933        C  0.27088781  0.59476034  0.84658139    -0.05600
C934        C  0.28118484  0.58848402  0.89414724    -0.33000
C935        C  0.27333961  0.61383181  0.93036705     0.36200
C936        C  0.25539557  0.64628900  0.91892937    -0.05900
C937        C  0.24733419  0.65343791  0.87064423    -0.32900
C938        C  0.25446697  0.62774720  0.83475445     0.36100
H939        H  0.29315823  0.56279786  0.90377128     0.16500
O940        O  0.27992724  0.60482842  0.97716556    -0.60400
H941        H  0.23389277  0.67835636  0.86101158     0.16500
O942        O  0.24480455  0.63482857  0.78827960    -0.60500
H943        H  0.21898194  0.62824038  0.78615437     0.43500
H944        H  0.30608548  0.60859039  0.98171627     0.43500
C945        C  0.27124473  0.92494667  0.99282513    -0.05600
C946        C  0.27106096  0.90451915  0.53543403    -0.33000
C947        C  0.28394230  0.86892168  0.53618174     0.36200
C948        C  0.29862977  0.85281451  0.99419576    -0.05900
C949        C  0.30071298  0.87428212  0.95242144    -0.32900
C950        C  0.28724883  0.90978893  0.95158039     0.36100
H951        H  0.25871657  0.91525967  0.56768097     0.16500
O952        O  0.28089922  0.84953962  0.57788229    -0.60400
H953        H  0.31131676  0.86377722  0.91923808     0.16500
O954        O  0.28871946  0.92884235  0.90952653    -0.60500
H955        H  0.31161199  0.94267866  0.91104966     0.43500
H956        H  0.25551563  0.84124593  0.57907308     0.43500
C957        C  0.27609480  0.09527549  0.48885612    -0.05600
C958        C  0.27115615  0.11975499  0.95139592    -0.33000
C959        C  0.28431136  0.15530615  0.95432536     0.36200
C960        C  0.30412529  0.16713238  0.49481120    -0.05900
C961        C  0.31081349  0.14156762  0.53130553    -0.32900
C962        C  0.29698969  0.10614639  0.52852444     0.36100
H963        H  0.25509404  0.11207039  0.92053259     0.16500
O964        O  0.27704846  0.17861788  0.91741660    -0.60400
H965        H  0.32564471  0.14856525  0.56319563     0.16500
O966        O  0.30308606  0.08278102  0.56572450    -0.60500
H967        H  0.32380284  0.06784375  0.55536129     0.43500
H968        H  0.25187881  0.18642369  0.92247120     0.43500
C969        C  0.91974139  0.29239789  0.50602510    -0.05600
C970        C  0.89589329  0.28824976  0.96684452    -0.33000
C971        C  0.86081120  0.30154981  0.96869143     0.36200
C972        C  0.84870153  0.32088327  0.50954830    -0.05900
C973        C  0.87257886  0.32530650  0.54857285    -0.32900
C974        C  0.90756338  0.31108149  0.54710755     0.36100
H975        H  0.90405598  0.27306087  0.93532069     0.16500
O976        O  0.83822834  0.29423321  0.93087672    -0.60400
H977        H  0.86435369  0.33850248  0.58133388     0.16500
O978        O  0.92914852  0.31457800  0.58673326    -0.60500
H979        H  0.93972619  0.33923151  0.58455084     0.43500
H980        H  0.84703906  0.30944134  0.90407980     0.43500
C981        C  0.09079577  0.29008897  0.00395728    -0.05600
C982        C  0.11534486  0.28026072  0.54028401    -0.33000
C983        C  0.15131001  0.29104349  0.53804899     0.36200
C984        C  0.16393605  0.31263767  0.99930008    -0.05900
C985        C  0.13878087  0.32378769  0.96439374    -0.32900
C986        C  0.10264140  0.31265334  0.96657070     0.36100
H987        H  0.10711574  0.26239386  0.56904192     0.16500
O988        O  0.17444392  0.27889758  0.57268540    -0.60400
H989        H  0.14646997  0.34064698  0.93466552     0.16500
O990        O  0.07932275  0.32342974  0.93141120    -0.60500
H991        H  0.06948966  0.34686798  0.94293398     0.43500
H992        H  0.16916953  0.29368988  0.60163945     0.43500
C993        C  0.13235272  0.09155409  0.49107969    -0.05600
C994        C  0.11993893  0.10478017  0.03489279    -0.33000
C995        C  0.09423473  0.13222147  0.03768797     0.36200
C996        C  0.08020948  0.14761202  0.99547011    -0.05900
C997        C  0.09363116  0.13550312  0.45171357    -0.32900
C998        C  0.11937570  0.10787860  0.44885259     0.36100
H999        H  0.12995437  0.09345966  0.06803217     0.16500
O1000       O  0.08268938  0.14327709  0.08211825    -0.60400
H1001       H  0.08421736  0.14765839  0.41877840     0.16500
O1002       O  0.13199682  0.09759211  0.40462706    -0.60500
H1003       H  0.11438757  0.07946446  0.39252786     0.43500
H1004       H  0.10049320  0.16171476  0.09282466     0.43500
C1005       C  0.69588718  0.86712399  0.48895134    -0.05600
C1006       C  0.68865636  0.89453208  0.52324820    -0.33000
C1007       C  0.70207903  0.92967167  0.51821809     0.36200
C1008       C  0.72339107  0.93870116  0.47850939    -0.05900
C1009       C  0.72876476  0.91246328  0.94212694    -0.32900
C1010       C  0.71505222  0.87714389  0.94716857     0.36100
H1011       H  0.67345931  0.88974208  0.55530145     0.16500
O1012       O  0.69564852  0.95459367  0.55390584    -0.60400
H1013       H  0.74583947  0.91849505  0.91168487     0.16500
O1014       O  0.72273766  0.85177469  0.91250364    -0.60500
H1015       H  0.70569434  0.85664195  0.88601284     0.43500
H1016       H  0.67274179  0.96635873  0.54489641     0.43500
C1017       C  0.73156437  0.10867293  0.98430907    -0.05600
C1018       C  0.73607831  0.13297232  0.94621550    -0.33000
C1019       C  0.72406270  0.16889118  0.94966379     0.36200
C1020       C  0.70545139  0.18118880  0.99099365    -0.05900
C1021       C  0.69973606  0.15589431  0.52832017    -0.32900
C1022       C  0.71240391  0.12022052  0.52501633     0.36100
H1023       H  0.75087642  0.12479274  0.91451300     0.16500
O1024       O  0.73138310  0.19206473  0.91255159    -0.60400
H1025       H  0.68638306  0.16333191  0.56116125     0.16500
O1026       O  0.70680855  0.09728899  0.56289465    -0.60500
H1027       H  0.68525494  0.08280125  0.55406815     0.43500
H1028       H  0.75621051  0.20090983  0.91835101     0.43500
C1029       C  0.92761552  0.14850278  0.49801207    -0.05600
C1030       C  0.91847544  0.13290568  0.95286106    -0.33000
C1031       C  0.89179120  0.10632475  0.94933921     0.36200
C1032       C  0.87355198  0.09460602  0.99083824    -0.05900
C1033       C  0.88137497  0.11156048  0.53569918    -0.32900
C1034       C  0.90804479  0.13829188  0.53916356     0.36100
H1035       H  0.93218412  0.14123238  0.92042889     0.16500
O1036       O  0.88430100  0.09163231  0.90513406    -0.60400
H1037       H  0.86635206  0.10448579  0.56762683     0.16500
O1038       O  0.91385377  0.15498771  0.58259158    -0.60500
H1039       H  0.92964424  0.13828819  0.60059815     0.43500
H1040       H  0.86686023  0.10847589  0.89030823     0.43500
C1041       C  0.90811467  0.74253781  0.00868072    -0.05600
C1042       C  0.88539185  0.74429614  0.96861496    -0.33000
C1043       C  0.84919187  0.73398069  0.97146510     0.36200
C1044       C  0.83462790  0.72018816  0.01464757    -0.05900
C1045       C  0.85804849  0.71650636  0.55502576    -0.32900
C1046       C  0.89419442  0.72767383  0.55252369     0.36100
H1047       H  0.89510412  0.75571957  0.93529780     0.16500
O1048       O  0.82797619  0.73800510  0.93161929    -0.60400
H1049       H  0.84866393  0.70657913  0.58907305     0.16500
O1050       O  0.91519038  0.72527837  0.59277560    -0.60500
H1051       H  0.92829139  0.70206939  0.58923061     0.43500
H1052       H  0.82198395  0.76416265  0.93059679     0.43500
C1053       C  0.15282616  0.71386806  0.50490706    -0.05600
C1054       C  0.12798817  0.70672523  0.46762868    -0.33000
C1055       C  0.09269634  0.71983858  0.46932926     0.36200
C1056       C  0.08084591  0.74057892  0.50876467    -0.05900
C1057       C  0.10463301  0.74605515  0.04546279    -0.32900
C1058       C  0.14002937  0.73301824  0.04395080     0.36100
H1059       H  0.13517651  0.69143546  0.43614712     0.16500
O1060       O  0.07031942  0.71300234  0.43123609    -0.60400
H1061       H  0.09640035  0.76221825  0.07609050     0.16500
O1062       O  0.16257387  0.74101353  0.08152211    -0.60500
H1063       H  0.15633426  0.72332829  0.10688434     0.43500
H1064       H  0.05627114  0.69122371  0.44048834     0.43500
C1065       C  0.92003126  0.88472432  0.99394352    -0.05600
C1066       C  0.90712924  0.89571533  0.45009993    -0.33000
C1067       C  0.88120717  0.92298812  0.44624005     0.36200
C1068       C  0.86758230  0.93993006  0.48791348    -0.05900
C1069       C  0.88018525  0.92854884  0.03178966    -0.32900
C1070       C  0.90625615  0.90158331  0.03558009     0.36100
H1071       H  0.91721991  0.88321993  0.41755037     0.16500
O1072       O  0.86977172  0.93300150  0.40150478    -0.60400
H1073       H  0.87019387  0.94092917  0.06447148     0.16500
O1074       O  0.91784932  0.89193062  0.08038431    -0.60500
H1075       H  0.93798759  0.90880199  0.08777979     0.43500
H1076       H  0.84925437  0.91662435  0.39410368     0.43500
C1077       C  0.07340751  0.88262412  0.49560229    -0.05600
C1078       C  0.08451105  0.89995221  0.53808584    -0.33000
C1079       C  0.11167686  0.92620413  0.53774319     0.36200
C1080       C  0.12803964  0.93632663  0.99307218    -0.05900
C1081       C  0.11776368  0.91837638  0.95059244    -0.32900
C1082       C  0.09083818  0.89168653  0.95089908     0.36100
H1083       H  0.07212582  0.89316257  0.57205683     0.16500
O1084       O  0.12133782  0.94229000  0.58033328    -0.60400
H1085       H  0.13075402  0.92485472  0.91691393     0.16500
O1086       O  0.08237479  0.87422814  0.90879235    -0.60500
H1087       H  0.06478940  0.89017533  0.89266837     0.43500
H1088       H  0.13989334  0.92620177  0.59413760     0.43500
loop_ 
_geom_bond_atom_site_label_1 
_geom_bond_atom_site_label_2 
_geom_bond_distance 
_geom_bond_site_symmetry_2 
_ccdc_geom_bond_type 
O1            V9   1.906       .  S
O1          C555   1.266       .  A
O2            V9   1.894   1_455  S
O2           C12   1.265   1_554  A
O3            V9   1.899       .  S
O3          C557   1.265   1_554  A
O4            V9   1.906   1_455  S
O4           C14   1.266       .  A
O5           V10   1.903   1_455  S
O5          C558   1.266       .  A
O6           V10   1.900       .  S
O6           C13   1.265       .  A
O7           V10   1.899   1_455  S
O7          C556   1.264       .  A
O8           V10   1.902       .  S
O8           C11   1.266       .  A
V9          V554   2.084   1_554  T
V10         V553   2.084       .  T
C11         O545   1.266       .  A
C11         C497   1.491       .  S
C12         O551   1.264       .  A
C12         C533   1.482       .  S
C13         O547   1.265       .  A
C13         C521   1.485       .  S
C14         O549   1.266   1_554  A
C14         C512   1.492       .  S
O15          V23   1.903   1_565  S
O15         C569   1.264       .  A
O16          V23   1.891       .  S
O16          C26   1.263       .  A
O17          V23   1.904   1_565  S
O17         C571   1.265       .  A
O18          V23   1.909       .  S
O18          C28   1.268       .  A
O19          V24   1.895       .  S
O19         C572   1.263   1_554  A
O20          V24   1.893   1_565  S
O20          C27   1.264   1_554  A
O21          V24   1.894       .  S
O21         C570   1.264   1_554  A
O22          V24   1.892   1_565  S
O22          C25   1.264   1_554  A
V23         V568   2.086       .  T
V24         V567   2.085   1_554  T
C25         O559   1.264       .  A
C25         C464   1.477       .  S
C26         O565   1.263       .  A
C26         C488   1.477       .  S
C27         O561   1.266       .  A
C27         C524   1.485       .  S
C28         O563   1.263       .  A
C28         C473   1.486       .  S
O29          V37   1.895       .  S
O29         C583   1.265       .  A
O30          V37   1.895   1_655  S
O30          C40   1.263   1_554  A
O31          V37   1.899       .  S
O31         C585   1.265   1_554  A
O32          V37   1.906   1_655  S
O32          C42   1.265       .  A
O33          V38   1.899   1_655  S
O33         C586   1.266       .  A
O34          V38   1.902       .  S
O34          C41   1.265       .  A
O35          V38   1.894   1_655  S
O35         C584   1.264       .  A
O36          V38   1.903       .  S
O36          C39   1.265       .  A
V37         V582   2.085   1_554  T
V38         V581   2.085       .  T
C39         O573   1.265       .  A
C39         C437   1.480       .  S
C40         O579   1.264       .  A
C40         C485   1.478       .  S
C41         O575   1.266       .  A
C41         C452   1.488       .  S
C42         O577   1.266   1_554  A
C42         C425   1.487       .  S
O43          V51   1.901       .  S
O43         C597   1.266       .  A
O44          V51   1.901   1_565  S
O44          C54   1.265       .  A
O45          V51   1.907       .  S
O45         C599   1.266       .  A
O46          V51   1.909   1_565  S
O46          C56   1.267       .  A
O47          V52   1.897   1_565  S
O47         C600   1.265   1_554  A
O48          V52   1.896       .  S
O48          C55   1.265   1_554  A
O49          V52   1.892   1_565  S
O49         C598   1.263   1_554  A
O50          V52   1.898       .  S
O50          C53   1.264   1_554  A
V51         V596   2.084       .  T
V52         V595   2.084   1_554  T
C53         O587   1.266       .  A
C53         C413   1.482       .  S
C54         O593   1.263       .  A
C54         C536   1.483       .  S
C55         O589   1.266       .  A
C55         C449   1.488       .  S
C56         O591   1.264       .  A
C56         C401   1.489       .  S
C57          C63   1.532       .  S
C57          C61   1.529       .  S
C57         C602   1.545   1_554  S
C57         C509   1.547       .  S
C58         C601   1.545       .  S
C58          H65   1.080       .  S
C58          C59   1.368       .  D
C59         C604   1.541       .  S
C59         C392   1.489       .  S
C60          C64   1.553       .  S
C60          C62   1.546       .  S
C60         C603   1.542   1_554  S
C60          H66   1.107       .  S
C61          H67   1.087       .  S
C61          C62   1.365       .  D
C62         C377   1.485       .  S
C63         H612   1.081       .  S
C63          C64   1.378       .  D
C64         C620   1.517       .  S
H68         C607   1.081       .  S
C69          C75   1.527       .  S
C69          C73   1.539       .  S
C69         C614   1.526       .  S
C69         C404   1.540       .  S
C70         C613   1.527   1_554  S
C70          H77   1.087       .  S
C70          C71   1.364       .  D
C71         C616   1.552       .  S
C71         C365   1.487       .  S
C72          C76   1.560       .  S
C72          C74   1.546       .  S
C72         C615   1.552       .  S
C72         H622   1.107       .  S
C73          H79   1.081       .  S
C73          C74   1.372       .  D
C74         C356   1.495       .  S
C75         H624   1.081       .  S
C75          C76   1.373       .  D
C76         C608   1.517       .  S
H78         C616   1.107       .  S
H80         C619   1.081       .  S
O81          V89   1.892       .  S
O81          C91   1.264       .  A
O82          V89   1.890       .  S
O82          C92   1.262       .  A
O83          V89   1.891       .  S
O83          C93   1.263       .  A
O84          V89   1.891       .  S
O84          C94   1.264       .  A
O85          V90   1.911       .  S
O85          C94   1.267       .  A
O86          V90   1.914       .  S
O86          C93   1.266       .  A
O87          V90   1.914       .  S
O87          C92   1.267       .  A
O88          V90   1.911       .  S
O88          C91   1.266       .  A
V89          V90   2.083       .  T
C91         C341   1.480       .  S
C92         C368   1.475       .  S
C93         C353   1.474       .  S
C94         C329   1.481       .  S
C95         C101   1.530       .  S
C95          C99   1.540   1_556  S
C95         C640   1.527       .  S
C95         C461   1.539       .  S
C96         C639   1.528       .  S
C96         H103   1.087       .  S
C96          C97   1.365       .  D
C97         C642   1.541       .  S
C97         C344   1.479       .  S
C98         C102   1.558       .  S
C98         C100   1.541       .  S
C98         C641   1.541   1_554  S
C98         H104   1.107       .  S
C99         H105   1.078       .  S
C99         C100   1.363       .  D
C100        C332   1.489       .  S
C101        H650   1.082       .  S
C101        C102   1.377   1_556  D
C102        C658   1.510       .  S
H106        C645   1.082       .  S
C107        C113   1.532       .  S
C107        C111   1.531       .  S
C107        C652   1.541       .  S
C107        C500   1.544       .  S
C108        C651   1.541       .  S
C108        H115   1.081       .  S
C108        C109   1.371       .  D
C109        C654   1.543       .  S
C109        C317   1.487       .  S
C110        C114   1.552       .  S
C110        C112   1.541       .  S
C110        C653   1.543       .  S
C110        H116   1.108       .  S
C111        H117   1.086       .  S
C111        C112   1.364       .  D
C112        C305   1.482       .  S
C113        H662   1.081       .  S
C113        C114   1.375       .  D
C114        C646   1.510       .  S
H118        C657   1.081       .  S
C119        C123   1.539   1_556  S
C119        C664   1.532       .  S
C119        C669   1.527       .  S
C119        C416   1.538       .  S
C120        C663   1.532       .  S
C120        H127   1.087       .  S
C120        C121   1.365       .  D
C121        C666   1.545       .  S
C121        C296   1.486       .  S
C122        C126   1.557       .  S
C122        C124   1.544   1_556  S
C122        C665   1.545       .  S
C122        H672   1.108       .  S
C123        H129   1.081       .  S
C123        C124   1.367       .  D
C124        C284   1.485       .  S
C125        C663   1.528       .  S
C125        H130   1.081       .  S
C125        C670   1.374       .  D
C126        C669   1.373       .  D
C126        C682   1.510       .  S
H128        C666   1.108       .  S
C131        C137   1.531       .  S
C131        C135   1.535       .  S
C131        C676   1.530       .  S
C131        C440   1.538       .  S
C132        C675   1.530   1_554  S
C132        H139   1.086       .  S
C132        C133   1.365       .  D
C133        C678   1.545       .  S
C133        C272   1.489       .  S
C134        C138   1.553       .  S
C134        C136   1.543       .  S
C134        C677   1.545       .  S
C134        H140   1.106       .  S
C135        H141   1.082       .  S
C135        C136   1.367       .  D
C136        C257   1.479       .  S
C137        H686   1.082       .  S
C137        C138   1.376       .  D
C138        C670   1.511       .  S
H142        C681   1.082       .  S
O143        V151   1.897       .  S
O143        C153   1.264       .  A
O144        V151   1.896       .  S
O144        C154   1.264       .  A
O145        V151   1.888       .  S
O145        C155   1.263       .  A
O146        V151   1.891       .  S
O146        C156   1.263       .  A
O147        V152   1.911       .  S
O147        C156   1.268       .  A
O148        V152   1.913       .  S
O148        C155   1.267       .  A
O149        V152   1.907       .  S
O149        C154   1.266       .  A
O150        V152   1.910       .  S
O150        C153   1.266       .  A
V151        V152   2.079       .  T
C153        C389   1.473       .  S
C154        C269   1.475       .  S
C155        C260   1.475       .  S
C156        C380   1.480       .  S
O157        V165   1.881       .  S
O157        C167   1.261       .  A
O158        V165   1.889       .  S
O158        C168   1.263       .  A
O159        V165   1.892       .  S
O159        C169   1.264       .  A
O160        V165   1.894       .  S
O160        C170   1.263       .  A
O161        V166   1.918       .  S
O161        C170   1.267       .  A
O162        V166   1.915       .  S
O162        C169   1.266       .  A
O163        V166   1.919       .  S
O163        C168   1.268       .  A
O164        V166   1.922       .  S
O164        C167   1.269       .  A
V165        V166   2.084       .  T
C167        C245   1.478       .  S
C168        C293   1.482       .  S
C169        C281   1.480       .  S
C170        C233   1.480       .  S
C171        C177   1.522       .  S
C171        C175   1.531       .  S
C171        C716   1.536       .  S
C171        C476   1.542       .  S
C172        C715   1.535   1_554  S
C172        H179   1.082       .  S
C172        C173   1.367       .  D
C173        C718   1.544   1_554  S
C173        C248   1.485       .  S
C174        C178   1.557       .  S
C174        C176   1.551       .  S
C174        C717   1.544       .  S
C174        H180   1.108       .  S
C175        H181   1.086       .  S
C175        C176   1.370       .  D
C176        C236   1.497       .  S
C177        H726   1.080       .  S
C177        C178   1.376       .  D
C178        C734   1.513       .  S
H182        C721   1.080   1_554  S
C183        C189   1.521       .  S
C183        C187   1.539       .  S
C183        C728   1.530   1_554  S
C183        C428   1.539       .  S
C184        C727   1.530       .  S
C184        H191   1.085       .  S
C184        C185   1.366       .  D
C185        C730   1.544       .  S
C185        C221   1.488       .  S
C186        C190   1.559       .  S
C186        C188   1.547       .  S
C186        C729   1.543   1_554  S
C186        H736   1.109       .  S
C187        H193   1.082       .  S
C187        C188   1.370       .  D
C188        C209   1.490       .  S
C189        H738   1.080       .  S
C189        C190   1.374       .  D
C190        C722   1.512       .  S
H192        C730   1.109       .  S
H194        C733   1.080       .  S
O195        V203   1.887       .  S
O195        C205   1.264       .  A
O196        V203   1.890       .  S
O196        C206   1.262       .  A
O197        V203   1.886       .  S
O197        C207   1.261       .  A
O198        V203   1.892       .  S
O198        C208   1.264       .  A
O199        V204   1.919       .  S
O199        C208   1.269       .  A
O200        V204   1.920       .  S
O200        C207   1.269       .  A
O201        V204   1.914       .  S
O201        C206   1.266       .  A
O202        V204   1.913       .  S
O202        C205   1.266       .  A
V203        V204   2.082       .  T
C205        C224   1.479       .  S
C206        C320   1.472       .  S
C207        C308   1.476       .  S
C208        C212   1.488       .  S
C209        C210   1.404       .  A
C209        C214   1.409       .  A
C210        C211   1.411       .  A
C210        H215   1.081       .  S
C211        C212   1.413       .  A
C211        O216   1.371       .  S
C212        C213   1.404       .  A
C213        C214   1.397       .  A
C213        H217   1.084       .  S
C214        O218   1.373       .  S
O216        H220   0.991       .  S
O218        H219   0.991       .  S
C221        C222   1.406       .  A
C221        C226   1.411       .  A
C222        C223   1.410       .  A
C222        H227   1.084       .  S
C223        C224   1.411       .  A
C223        O228   1.371       .  S
C224        C225   1.400       .  A
C225        C226   1.392       .  A
C225        H229   1.084       .  S
C226        O230   1.374       .  S
O228        H232   0.991       .  S
O230        H231   0.991       .  S
C233        C234   1.404       .  A
C233        C238   1.406       .  A
C234        C235   1.411       .  A
C234        H239   1.083       .  S
C235        C236   1.414       .  A
C235        O240   1.371       .  S
C236        C237   1.407       .  A
C237        C238   1.397       .  A
C237        H241   1.084       .  S
C238        O242   1.372       .  S
O240        H244   0.991       .  S
O242        H243   0.992       .  S
C245        C246   1.402       .  A
C245        C250   1.410       .  A
C246        C247   1.391       .  A
C246        H251   1.083       .  S
C247        C248   1.409       .  A
C247        O252   1.373       .  S
C248        C249   1.405       .  A
C249        C250   1.410       .  A
C249        H253   1.081       .  S
C250        O254   1.371       .  S
O252        H256   0.990       .  S
O254        H255   0.992       .  S
C257        C258   1.403       .  A
C257        C262   1.407       .  A
C258        C259   1.408       .  A
C258        H263   1.082       .  S
C259        C260   1.411       .  A
C259        O264   1.372       .  S
C260        C261   1.401       .  A
C261        C262   1.393       .  A
C261        H265   1.084       .  S
C262        O266   1.372       .  S
O264        H268   0.993       .  S
O266        H267   0.992       .  S
C269        C270   1.404       .  A
C269        C274   1.406       .  A
C270        C271   1.404       .  A
C270        H275   1.084       .  S
C271        C272   1.411       .  A
C271        O276   1.370       .  S
C272        C273   1.407       .  A
C273        C274   1.398       .  A
C273        H277   1.084       .  S
C274        O278   1.372       .  S
O276        H280   0.991       .  S
O278        H279   0.992       .  S
C281        C282   1.408       .  A
C281        C286   1.407       .  A
C282        C283   1.411       .  A
C282        H287   1.083       .  S
C283        C284   1.409       .  A
C283        O288   1.372       .  S
C284        C285   1.402       .  A
C285        C286   1.393       .  A
C285        H289   1.083       .  S
C286        O290   1.372       .  S
O288        H292   0.992       .  S
O290        H291   0.992       .  S
C293        C294   1.402       .  A
C293        C298   1.412       .  A
C294        C295   1.395       .  A
C294        H299   1.084       .  S
C295        C296   1.408       .  A
C295        O300   1.372       .  S
C296        C297   1.404       .  A
C297        C298   1.410       .  A
C297        H301   1.082       .  S
C298        O302   1.371       .  S
O300        H304   0.992       .  S
O302        H303   0.992       .  S
C305        C306   1.404       .  A
C305        C310   1.408       .  A
C306        C307   1.408       .  A
C306        H311   1.082       .  S
C307        C308   1.409       .  A
C307        O312   1.371       .  S
C308        C309   1.402       .  A
C309        C310   1.397       .  A
C309        H313   1.084       .  S
C310        O314   1.373       .  S
O312        H316   0.992       .  S
O314        H315   0.991       .  S
C317        C318   1.406       .  A
C317        C322   1.409       .  A
C318        C319   1.405       .  A
C318        H323   1.083       .  S
C319        C320   1.407       .  A
C319        O324   1.372       .  S
C320        C321   1.401       .  A
C321        C322   1.400       .  A
C321        H325   1.084       .  S
C322        O326   1.373       .  S
O324        H328   0.992       .  S
O326        H327   0.992       .  S
C329        C330   1.408       .  A
C329        C334   1.409       .  A
C330        C331   1.408       .  A
C330        H335   1.083       .  S
C331        C332   1.408       .  A
C331        O336   1.371       .  S
C332        C333   1.406       .  A
C333        C334   1.392       .  A
C333        H337   1.084       .  S
C334        O338   1.373       .  S
O336        H340   0.992       .  S
O338        H339   0.992       .  S
C341        C342   1.403       .  A
C341        C346   1.412       .  A
C342        C343   1.395       .  A
C342        H347   1.084       .  S
C343        C344   1.407       .  A
C343        O348   1.373       .  S
C344        C345   1.402       .  A
C345        C346   1.407       .  A
C345        H349   1.082       .  S
C346        O350   1.372       .  S
O348        H352   0.992       .  S
O350        H351   0.992       .  S
C353        C354   1.403       .  A
C353        C358   1.404       .  A
C354        C355   1.409       .  A
C354        H359   1.084       .  S
C355        C356   1.414       .  A
C355        O360   1.371       .  S
C356        C357   1.406       .  A
C357        C358   1.396       .  A
C357        H361   1.084       .  S
C358        O362   1.372       .  S
O360        H364   0.994       .  S
O362        H363   0.992       .  S
C365        C366   1.400       .  A
C365        C370   1.411       .  A
C366        C367   1.406       .  A
C366        H371   1.075       .  S
C367        C368   1.407       .  A
C367        O372   1.372       .  S
C368        C369   1.402       .  A
C369        C370   1.398       .  A
C369        H373   1.084       .  S
C370        O374   1.372       .  S
O372        H376   0.991       .  S
O374        H375   0.992       .  S
C377        C378   1.404       .  A
C377        C382   1.404       .  A
C378        C379   1.398       .  A
C378        H383   1.084       .  S
C379        C380   1.410       .  A
C379        O384   1.373       .  S
C380        C381   1.404       .  A
C381        C382   1.404       .  A
C381        H385   1.083       .  S
C382        O386   1.365       .  S
O384        H388   0.993       .  S
O386        H387   0.992       .  S
C389        C390   1.402       .  A
C389        C394   1.405       .  A
C390        C391   1.404       .  A
C390        H395   1.084       .  S
C391        C392   1.412       .  A
C391        O396   1.371       .  S
C392        C393   1.406       .  A
C393        C394   1.400       .  A
C393        H397   1.084       .  S
C394        O398   1.372       .  S
O396        H400   0.991       .  S
O398        H399   0.992       .  S
C401        C406   1.409       .  A
C401        C946   1.404       .  A
C402        C403   1.400       .  A
C402        C945   1.404   1_554  A
C402        H407   1.083       .  S
C403        C948   1.416   1_554  A
C403        O408   1.373       .  S
C404        C405   1.414       .  A
C404        C947   1.416       .  A
C405        C406   1.404       .  A
C405        H409   1.076       .  S
C406        O410   1.371       .  S
O408        H412   0.992       .  S
O410        H411   0.992       .  S
C413        C418   1.408   1_556  A
C413        C958   1.401       .  A
C414        C415   1.399       .  A
C414        C957   1.401       .  A
C414        H419   1.084       .  S
C415        C960   1.416       .  A
C415        O420   1.373       .  S
C416        C417   1.414   1_556  A
C416        C959   1.416       .  A
C417        C418   1.403       .  A
C417        H421   1.076       .  S
C418        O422   1.372       .  S
O420        H424   0.992       .  S
O422        H423   0.992       .  S
C425        C430   1.410       .  A
C425        C970   1.402   1_554  A
C426        C427   1.398       .  A
C426        C969   1.402       .  A
C426        H431   1.084       .  S
C427        C972   1.416       .  A
C427        O432   1.373       .  S
C428        C429   1.413       .  A
C428        C971   1.417   1_554  A
C429        C430   1.407       .  A
C429        H433   1.078       .  S
C430        O434   1.371       .  S
O432        H436   0.992       .  S
O434        H435   0.991       .  S
C437        C442   1.407       .  A
C437        C982   1.401       .  A
C438        C439   1.396       .  A
C438        C981   1.401       .  A
C438        H443   1.084       .  S
C439        C984   1.415   1_554  A
C439        O444   1.373       .  S
C440        C441   1.415       .  A
C440        C983   1.415       .  A
C441        C442   1.405       .  A
C441        H445   1.077       .  S
C442        O446   1.372       .  S
O444        H448   0.992       .  S
O446        H447   0.992       .  S
C449        C454   1.412       .  A
C449        C994   1.405   1_556  A
C450        C451   1.398       .  A
C450        C993   1.405       .  A
C450        H455   1.083       .  S
C451        C452   1.411       .  A
C451        O456   1.371       .  S
C452        C997   1.408       .  A
C453        C454   1.404       .  A
C453        C996   1.408       .  A
C453        H457   1.083       .  S
C454        O458   1.371       .  S
O456        H460   0.992       .  S
O458        H459   0.992       .  S
C461        C462   1.414   1_556  A
C461       C1010   1.417       .  A
C462        C463   1.395       .  A
C462        H467   1.073       .  S
C463        C464   1.403   1_554  A
C463        O468   1.372       .  S
C464       C1009   1.404       .  A
C465        C466   1.405       .  A
C465       C1008   1.404       .  A
C465        H469   1.084       .  S
C466       C1005   1.417       .  A
C466        O470   1.372       .  S
O468        H472   0.992       .  S
O470        H471   0.991       .  S
C473        C474   1.403       .  A
C473       C1022   1.409       .  A
C474        C475   1.402       .  A
C474        H479   1.084       .  S
C475        C476   1.418       .  A
C475        O480   1.372       .  S
C476       C1021   1.413       .  A
C477        C478   1.402       .  A
C477       C1020   1.412   1_554  A
C477        H481   1.077       .  S
C478       C1017   1.410   1_554  A
C478        O482   1.372       .  S
O480        H484   0.991       .  S
O482        H483   0.992       .  S
C485        C490   1.411   1_556  A
C485       C1030   1.403       .  A
C486        C487   1.395       .  A
C486       C1029   1.403       .  A
C486        H491   1.083       .  S
C487        C488   1.410       .  A
C487        O492   1.372       .  S
C488       C1033   1.405       .  A
C489        C490   1.398       .  A
C489       C1032   1.405   1_554  A
C489        H493   1.084       .  S
C490        O494   1.372       .  S
O492        H496   0.992       .  S
O494        H495   0.992       .  S
C497        C498   1.404       .  A
C497       C1046   1.410       .  A
C498        C499   1.401       .  A
C498        H503   1.083       .  S
C499        C500   1.416       .  A
C499        O504   1.373       .  S
C500       C1045   1.415       .  A
C501        C502   1.407       .  A
C501       C1044   1.414       .  A
C501        H505   1.077       .  S
C502       C1041   1.410       .  A
C502        O506   1.372       .  S
O504        H508   0.992       .  S
O506        H507   0.991       .  S
C509        C510   1.414   1_554  A
C509       C1058   1.418       .  A
C510        C511   1.404       .  A
C510        H515   1.075       .  S
C511        C512   1.408   1_556  A
C511        O516   1.372       .  S
C512       C1057   1.405       .  A
C513        C514   1.406       .  A
C513       C1056   1.406       .  A
C513        H517   1.084       .  S
C514       C1053   1.418       .  A
C514        O518   1.372       .  S
O516        H520   0.991       .  S
O518        H519   0.991       .  S
C521        C526   1.411       .  A
C521       C1066   1.407       .  A
C522        C523   1.402       .  A
C522       C1065   1.407       .  A
C522        H527   1.083       .  S
C523        C524   1.411       .  A
C523        O528   1.371       .  S
C524       C1069   1.405   1_556  A
C525        C526   1.397       .  A
C525       C1068   1.405       .  A
C525        H529   1.083       .  S
C526        O530   1.371       .  S
O528        H532   0.992       .  S
O530        H531   0.993       .  S
C533        C534   1.404   1_556  A
C533       C1082   1.412       .  A
C534        C535   1.396       .  A
C534        H539   1.083       .  S
C535       C1080   1.411   1_554  A
C535        O540   1.372       .  S
C536        C537   1.406       .  A
C536       C1079   1.412       .  A
C537        C538   1.401       .  A
C537        H541   1.083       .  S
C538       C1077   1.412       .  A
C538        O542   1.372       .  S
O540        H544   0.992       .  S
O542        H543   0.992       .  S
O545        V553   1.907       .  S
O546        V553   1.896   1_455  S
O546        C556   1.265       .  A
O547        V553   1.898       .  S
O548        V553   1.906   1_455  S
O548        C558   1.266       .  A
O549        V554   1.904   1_455  S
O550        V554   1.901       .  S
O550        C557   1.265       .  A
O551        V554   1.899   1_455  S
O552        V554   1.902       .  S
O552        C555   1.266   1_556  A
C555       C1041   1.491       .  S
C556       C1077   1.482       .  S
C557       C1065   1.486       .  S
C558       C1056   1.491       .  S
O559        V567   1.902   1_565  S
O560        V567   1.891       .  S
O560        C570   1.263       .  A
O561        V567   1.905   1_565  S
O562        V567   1.909       .  S
O562        C572   1.268       .  A
O563        V568   1.895       .  S
O564        V568   1.893   1_565  S
O564        C571   1.264       .  A
O565        V568   1.893       .  S
O566        V568   1.890   1_565  S
O566        C569   1.264       .  A
C569       C1008   1.478       .  S
C570       C1032   1.477       .  S
C571       C1068   1.484       .  S
C572       C1017   1.487       .  S
O573        V581   1.895       .  S
O574        V581   1.894   1_655  S
O574        C584   1.263       .  A
O575        V581   1.900       .  S
O576        V581   1.907   1_655  S
O576        C586   1.266       .  A
O577        V582   1.900   1_655  S
O578        V582   1.903       .  S
O578        C585   1.265       .  A
O579        V582   1.894   1_655  S
O580        V582   1.903       .  S
O580        C583   1.265   1_556  A
C583        C981   1.481       .  S
C584       C1029   1.477       .  S
C585        C996   1.488       .  S
C586        C969   1.487       .  S
O587        V595   1.901       .  S
O588        V595   1.901   1_565  S
O588        C598   1.265       .  A
O589        V595   1.907       .  S
O590        V595   1.908   1_565  S
O590        C600   1.267       .  A
O591        V596   1.897   1_565  S
O592        V596   1.896       .  S
O592        C599   1.265       .  A
O593        V596   1.892   1_565  S
O594        V596   1.898       .  S
O594        C597   1.264       .  A
C597        C957   1.482       .  S
C598       C1080   1.482       .  S
C599        C993   1.488       .  S
C600        C945   1.489       .  S
C601        C607   1.532       .  S
C601        C605   1.529       .  S
C601       C1053   1.547       .  S
C602        H609   1.080       .  S
C602        C603   1.368       .  D
C603        C936   1.489       .  S
C604        C608   1.553       .  S
C604        C606   1.546       .  S
C604        H610   1.107       .  S
C605        H611   1.087       .  S
C605        C606   1.366       .  D
C606        C921   1.485       .  S
C607        C608   1.378       .  D
C613        C619   1.526   1_556  S
C613        C617   1.539       .  S
C613        C948   1.540       .  S
C614        H621   1.087       .  S
C614        C615   1.364       .  D
C615        C909   1.487       .  S
C616        C620   1.561       .  S
C616        C618   1.546   1_554  S
C617        H623   1.081       .  S
C617        C618   1.372       .  D
C618        C900   1.494       .  S
C619        C620   1.373       .  D
O625        V633   1.892       .  S
O625        C635   1.264       .  A
O626        V633   1.891       .  S
O626        C636   1.262       .  A
O627        V633   1.892       .  S
O627        C637   1.263       .  A
O628        V633   1.892       .  S
O628        C638   1.264       .  A
O629        V634   1.910       .  S
O629        C638   1.266       .  A
O630        V634   1.913       .  S
O630        C637   1.266       .  A
O631        V634   1.914       .  S
O631        C636   1.267       .  A
O632        V634   1.911       .  S
O632        C635   1.266       .  A
V633        V634   2.083       .  T
C635        C885   1.480       .  S
C636        C912   1.476       .  S
C637        C897   1.474       .  S
C638        C873   1.480       .  S
C639        C645   1.530       .  S
C639        C643   1.540       .  S
C639       C1005   1.540       .  S
C640        H647   1.087       .  S
C640        C641   1.364       .  D
C641        C888   1.479       .  S
C642        C646   1.558       .  S
C642        C644   1.541       .  S
C642        H648   1.107       .  S
C643        H649   1.078       .  S
C643        C644   1.362       .  D
C644        C876   1.489       .  S
C645        C646   1.377       .  D
C651        C657   1.531       .  S
C651        C655   1.530   1_554  S
C651       C1044   1.543       .  S
C652        H659   1.081       .  S
C652        C653   1.370       .  D
C653        C861   1.486       .  S
C654        C658   1.552       .  S
C654        C656   1.541   1_554  S
C654        H660   1.108       .  S
C655        H661   1.086       .  S
C655        C656   1.364       .  D
C656        C849   1.483       .  S
C657        C658   1.375       .  D
C663        C667   1.539       .  S
C663        C960   1.539       .  S
C664        H671   1.087       .  S
C664        C665   1.365       .  D
C665        C840   1.486       .  S
C666        C670   1.557       .  S
C666        C668   1.544       .  S
C667        H673   1.081       .  S
C667        C668   1.367       .  D
C668        C828   1.484       .  S
C669        H674   1.081   1_556  S
C675        C681   1.530       .  S
C675        C679   1.535       .  S
C675        C984   1.538       .  S
C676        H683   1.086       .  S
C676        C677   1.365       .  D
C677        C816   1.489       .  S
C678        C682   1.553   1_554  S
C678        C680   1.543   1_554  S
C678        H684   1.106       .  S
C679        H685   1.082       .  S
C679        C680   1.367       .  D
C680        C801   1.479       .  S
C681        C682   1.376       .  D
O687        V695   1.897       .  S
O687        C697   1.264       .  A
O688        V695   1.896       .  S
O688        C698   1.264       .  A
O689        V695   1.887       .  S
O689        C699   1.263       .  A
O690        V695   1.889       .  S
O690        C700   1.263       .  A
O691        V696   1.912       .  S
O691        C700   1.268       .  A
O692        V696   1.914       .  S
O692        C699   1.267       .  A
O693        V696   1.907       .  S
O693        C698   1.266       .  A
O694        V696   1.910       .  S
O694        C697   1.266       .  A
V695        V696   2.079       .  T
C697        C933   1.472       .  S
C698        C813   1.475       .  S
C699        C804   1.475       .  S
C700        C924   1.480       .  S
O701        V709   1.882       .  S
O701        C711   1.261       .  A
O702        V709   1.890       .  S
O702        C712   1.263       .  A
O703        V709   1.893       .  S
O703        C713   1.264       .  A
O704        V709   1.894       .  S
O704        C714   1.264       .  A
O705        V710   1.916       .  S
O705        C714   1.267       .  A
O706        V710   1.914       .  S
O706        C713   1.266       .  A
O707        V710   1.919       .  S
O707        C712   1.268       .  A
O708        V710   1.922       .  S
O708        C711   1.269       .  A
V709        V710   2.084       .  T
C711        C789   1.479       .  S
C712        C837   1.482       .  S
C713        C825   1.479       .  S
C714        C777   1.479       .  S
C715        C721   1.522       .  S
C715        C719   1.531       .  S
C715       C1020   1.542       .  S
C716        H723   1.082       .  S
C716        C717   1.367       .  D
C717        C792   1.485       .  S
C718        C722   1.556   1_556  S
C718        C720   1.551       .  S
C718        H724   1.108       .  S
C719        H725   1.086       .  S
C719        C720   1.370       .  D
C720        C780   1.495       .  S
C721        C722   1.375   1_556  D
C727        C733   1.521       .  S
C727        C731   1.539       .  S
C727        C972   1.539       .  S
C728        H735   1.085       .  S
C728        C729   1.365       .  D
C729        C765   1.487       .  S
C730        C734   1.559       .  S
C730        C732   1.547       .  S
C731        H737   1.082       .  S
C731        C732   1.370       .  D
C732        C753   1.489       .  S
C733        C734   1.374       .  D
O739        V747   1.887       .  S
O739        C749   1.264       .  A
O740        V747   1.891       .  S
O740        C750   1.262       .  A
O741        V747   1.886       .  S
O741        C751   1.261       .  A
O742        V747   1.891       .  S
O742        C752   1.264       .  A
O743        V748   1.919       .  S
O743        C752   1.269       .  A
O744        V748   1.921       .  S
O744        C751   1.269       .  A
O745        V748   1.912       .  S
O745        C750   1.266       .  A
O746        V748   1.912       .  S
O746        C749   1.266       .  A
V747        V748   2.082       .  T
C749        C768   1.478       .  S
C750        C864   1.472       .  S
C751        C852   1.476       .  S
C752        C756   1.487       .  S
C753        C754   1.404       .  A
C753        C758   1.409       .  A
C754        C755   1.411       .  A
C754        H759   1.081       .  S
C755        C756   1.413       .  A
C755        O760   1.371       .  S
C756        C757   1.404       .  A
C757        C758   1.397       .  A
C757        H761   1.084       .  S
C758        O762   1.373       .  S
O760        H764   0.991       .  S
O762        H763   0.991       .  S
C765        C766   1.406       .  A
C765        C770   1.411       .  A
C766        C767   1.410       .  A
C766        H771   1.084       .  S
C767        C768   1.411       .  A
C767        O772   1.371       .  S
C768        C769   1.400       .  A
C769        C770   1.391       .  A
C769        H773   1.084       .  S
C770        O774   1.374       .  S
O772        H776   0.992       .  S
O774        H775   0.991       .  S
C777        C778   1.404       .  A
C777        C782   1.406       .  A
C778        C779   1.410       .  A
C778        H783   1.083       .  S
C779        C780   1.414       .  A
C779        O784   1.371       .  S
C780        C781   1.407       .  A
C781        C782   1.397       .  A
C781        H785   1.084       .  S
C782        O786   1.372       .  S
O784        H788   0.991       .  S
O786        H787   0.992       .  S
C789        C790   1.402       .  A
C789        C794   1.411       .  A
C790        C791   1.391       .  A
C790        H795   1.083       .  S
C791        C792   1.409       .  A
C791        O796   1.373       .  S
C792        C793   1.405       .  A
C793        C794   1.411       .  A
C793        H797   1.081       .  S
C794        O798   1.371       .  S
O796        H800   0.991       .  S
O798        H799   0.991       .  S
C801        C802   1.403       .  A
C801        C806   1.407       .  A
C802        C803   1.408       .  A
C802        H807   1.082       .  S
C803        C804   1.411       .  A
C803        O808   1.372       .  S
C804        C805   1.401       .  A
C805        C806   1.392       .  A
C805        H809   1.084       .  S
C806        O810   1.372       .  S
O808        H812   0.992       .  S
O810        H811   0.991       .  S
C813        C814   1.403       .  A
C813        C818   1.406       .  A
C814        C815   1.404       .  A
C814        H819   1.084       .  S
C815        C816   1.411       .  A
C815        O820   1.370       .  S
C816        C817   1.407       .  A
C817        C818   1.398       .  A
C817        H821   1.084       .  S
C818        O822   1.372       .  S
O820        H824   0.991       .  S
O822        H823   0.992       .  S
C825        C826   1.408       .  A
C825        C830   1.407       .  A
C826        C827   1.411       .  A
C826        H831   1.083       .  S
C827        C828   1.409       .  A
C827        O832   1.372       .  S
C828        C829   1.402       .  A
C829        C830   1.393       .  A
C829        H833   1.083       .  S
C830        O834   1.372       .  S
O832        H836   0.992       .  S
O834        H835   0.992       .  S
C837        C838   1.402       .  A
C837        C842   1.412       .  A
C838        C839   1.396       .  A
C838        H843   1.084       .  S
C839        C840   1.408       .  A
C839        O844   1.372       .  S
C840        C841   1.404       .  A
C841        C842   1.410       .  A
C841        H845   1.082       .  S
C842        O846   1.371       .  S
O844        H848   0.992       .  S
O846        H847   0.993       .  S
C849        C850   1.404       .  A
C849        C854   1.408       .  A
C850        C851   1.408       .  A
C850        H855   1.082       .  S
C851        C852   1.409       .  A
C851        O856   1.371       .  S
C852        C853   1.402       .  A
C853        C854   1.396       .  A
C853        H857   1.084       .  S
C854        O858   1.373       .  S
O856        H860   0.992       .  S
O858        H859   0.991       .  S
C861        C862   1.406       .  A
C861        C866   1.409       .  A
C862        C863   1.404       .  A
C862        H867   1.083       .  S
C863        C864   1.407       .  A
C863        O868   1.372       .  S
C864        C865   1.401       .  A
C865        C866   1.400       .  A
C865        H869   1.084       .  S
C866        O870   1.373       .  S
O868        H872   0.992       .  S
O870        H871   0.992       .  S
C873        C874   1.408       .  A
C873        C878   1.408       .  A
C874        C875   1.408       .  A
C874        H879   1.083       .  S
C875        C876   1.408       .  A
C875        O880   1.371       .  S
C876        C877   1.406       .  A
C877        C878   1.392       .  A
C877        H881   1.084       .  S
C878        O882   1.373       .  S
O880        H884   0.992       .  S
O882        H883   0.992       .  S
C885        C886   1.403       .  A
C885        C890   1.412       .  A
C886        C887   1.395       .  A
C886        H891   1.084       .  S
C887        C888   1.407       .  A
C887        O892   1.373       .  S
C888        C889   1.402       .  A
C889        C890   1.407       .  A
C889        H893   1.082       .  S
C890        O894   1.371       .  S
O892        H896   0.992       .  S
O894        H895   0.992       .  S
C897        C898   1.403       .  A
C897        C902   1.404       .  A
C898        C899   1.410       .  A
C898        H903   1.084       .  S
C899        C900   1.414       .  A
C899        O904   1.371       .  S
C900        C901   1.406       .  A
C901        C902   1.395       .  A
C901        H905   1.084       .  S
C902        O906   1.371       .  S
O904        H908   0.992       .  S
O906        H907   0.991       .  S
C909        C910   1.400       .  A
C909        C914   1.411       .  A
C910        C911   1.407       .  A
C910        H915   1.075       .  S
C911        C912   1.407       .  A
C911        O916   1.373       .  S
C912        C913   1.402       .  A
C913        C914   1.398       .  A
C913        H917   1.084       .  S
C914        O918   1.372       .  S
O916        H920   0.990       .  S
O918        H919   0.992       .  S
C921        C922   1.403       .  A
C921        C926   1.404       .  A
C922        C923   1.398       .  A
C922        H927   1.084       .  S
C923        C924   1.410       .  A
C923        O928   1.373       .  S
C924        C925   1.405       .  A
C925        C926   1.404       .  A
C925        H929   1.083       .  S
C926        O930   1.365       .  S
O928        H932   0.993       .  S
O930        H931   0.992       .  S
C933        C934   1.402       .  A
C933        C938   1.405       .  A
C934        C935   1.404       .  A
C934        H939   1.084       .  S
C935        C936   1.412       .  A
C935        O940   1.371       .  S
C936        C937   1.406       .  A
C937        C938   1.400       .  A
C937        H941   1.084       .  S
C938        O942   1.372       .  S
O940        H944   0.991       .  S
O942        H943   0.992       .  S
C945        C950   1.409       .  A
C946        C947   1.400       .  A
C946        H951   1.083       .  S
C947        O952   1.373       .  S
C948        C949   1.414       .  A
C949        C950   1.404       .  A
C949        H953   1.077       .  S
C950        O954   1.371       .  S
O952        H956   0.992       .  S
O954        H955   0.992       .  S
C957        C962   1.408       .  A
C958        C959   1.399       .  A
C958        H963   1.084       .  S
C959        O964   1.373       .  S
C960        C961   1.414       .  A
C961        C962   1.403       .  A
C961        H965   1.076       .  S
C962        O966   1.372       .  S
O964        H968   0.991       .  S
O966        H967   0.992       .  S
C969        C974   1.409       .  A
C970        C971   1.398       .  A
C970        H975   1.084       .  S
C971        O976   1.373       .  S
C972        C973   1.413       .  A
C973        C974   1.407       .  A
C973        H977   1.077       .  S
C974        O978   1.372       .  S
O976        H980   0.991       .  S
O978        H979   0.991       .  S
C981        C986   1.407   1_554  A
C982        C983   1.396       .  A
C982        H987   1.084       .  S
C983        O988   1.373       .  S
C984        C985   1.415       .  A
C985        C986   1.406       .  A
C985        H989   1.077       .  S
C986        O990   1.372       .  S
O988        H992   0.992       .  S
O990        H991   0.992       .  S
C993        C998   1.412       .  A
C994        C995   1.398       .  A
C994        H999   1.083       .  S
C995        C996   1.411   1_554  A
C995       O1000   1.372       .  S
C997        C998   1.404       .  A
C997       H1001   1.083       .  S
C998       O1002   1.372       .  S
O1000      H1004   0.992       .  S
O1002      H1003   0.992       .  S
C1005      C1006   1.414       .  A
C1006      C1007   1.394       .  A
C1006      H1011   1.073       .  S
C1007      C1008   1.403       .  A
C1007      O1012   1.372       .  S
C1009      C1010   1.404       .  A
C1009      H1013   1.084       .  S
C1010      O1014   1.372       .  S
O1012      H1016   0.992       .  S
O1014      H1015   0.992       .  S
C1017      C1018   1.403       .  A
C1018      C1019   1.403       .  A
C1018      H1023   1.083       .  S
C1019      C1020   1.418       .  A
C1019      O1024   1.372       .  S
C1021      C1022   1.402       .  A
C1021      H1025   1.077       .  S
C1022      O1026   1.372       .  S
O1024      H1028   0.992       .  S
O1026      H1027   0.992       .  S
C1029      C1034   1.411       .  A
C1030      C1031   1.395       .  A
C1030      H1035   1.083       .  S
C1031      C1032   1.410       .  A
C1031      O1036   1.372       .  S
C1033      C1034   1.398       .  A
C1033      H1037   1.084       .  S
C1034      O1038   1.372       .  S
O1036      H1040   0.993       .  S
O1038      H1039   0.992       .  S
C1041      C1042   1.404   1_554  A
C1042      C1043   1.401       .  A
C1042      H1047   1.083       .  S
C1043      C1044   1.416   1_556  A
C1043      O1048   1.373       .  S
C1045      C1046   1.407       .  A
C1045      H1049   1.077       .  S
C1046      O1050   1.371       .  S
O1048      H1052   0.991       .  S
O1050      H1051   0.991       .  S
C1053      C1054   1.414       .  A
C1054      C1055   1.403       .  A
C1054      H1059   1.075       .  S
C1055      C1056   1.408       .  A
C1055      O1060   1.372       .  S
C1057      C1058   1.405       .  A
C1057      H1061   1.084       .  S
C1058      O1062   1.372       .  S
O1060      H1064   0.991       .  S
O1062      H1063   0.991       .  S
C1065      C1070   1.411   1_556  A
C1066      C1067   1.402       .  A
C1066      H1071   1.083       .  S
C1067      C1068   1.411       .  A
C1067      O1072   1.371       .  S
C1069      C1070   1.397       .  A
C1069      H1073   1.083       .  S
C1070      O1074   1.371       .  S
O1072      H1076   0.992       .  S
O1074      H1075   0.993       .  S
C1077      C1078   1.404       .  A
C1078      C1079   1.396       .  A
C1078      H1083   1.083       .  S
C1079      O1084   1.372       .  S
C1080      C1081   1.406       .  A
C1081      C1082   1.401       .  A
C1081      H1085   1.083       .  S
C1082      O1086   1.372       .  S
O1084      H1088   0.992       .  S
O1086      H1087   0.992       .  S
