geometry optimzed in LAMMPS
_audit_creation_date              2020-11-30 
_audit_creation_method            'lammps2cif' 
_symmetry_space_group_name_H-M    'P1' 
_symmetry_Int_Tables_number       1 
_symmetry_cell_setting            triclinic 
loop_ 
_symmetry_equiv_pos_as_xyz 
  x,y,z 
_cell_length_a                    51.12498737 
_cell_length_b                    50.487691891924335 
_cell_length_c                    29.077790405187088 
_cell_angle_alpha                 90.15109877478554 
_cell_angle_beta                  89.9346982868975 
_cell_angle_gamma                 121.34042911040237 
loop_ 
_atom_site_label 
_atom_site_type_symbol 
_atom_site_fract_x 
_atom_site_fract_y 
_atom_site_fract_z 
_atom_site_charge 
Zr1        Zr  0.62222219  0.43276136  0.52757459     2.17500
O2          O  0.67005651  0.46936814  0.56594865    -0.51700
O3          O  0.61779570  0.38468735  0.55434127    -0.74900
O4          O  0.60937936  0.42867708  0.60951907    -0.81700
O5          O  0.64912239  0.41753663  0.41480244    -0.83500
O6          O  0.59166458  0.46062282  0.60990809    -0.79100
O7          O  0.66307648  0.42970552  0.48948686    -0.90700
O8          O  0.56755311  0.34715319  0.54657013    -0.76700
O9          O  0.56995610  0.40632642  0.55065748    -0.86200
O10         O  0.59442949  0.39173527  0.47426614    -0.85900
O11         O  0.60793162  0.47168872  0.52260000    -0.72600
O12         O  0.62948585  0.45839967  0.45416160    -0.84800
Zr13       Zr  0.53231483  0.42642269  0.42203713     2.26400
Zr14       Zr  0.55564432  0.44417921  0.54755198     2.06300
Zr15       Zr  0.60159219  0.41623093  0.40261812     2.10000
Zr16       Zr  0.54232153  0.36566702  0.49726177     1.78800
O17         O  0.63842939  0.44730475  0.34320258    -0.93600
O18         O  0.50706641  0.34309758  0.56180975    -0.41400
O19         O  0.54855898  0.38924327  0.42384680    -0.78000
O20         O  0.52578545  0.40201072  0.49538672    -0.96700
O21         O  0.56042415  0.46804896  0.47458088    -0.90000
O22         O  0.58448794  0.45203528  0.39715756    -0.92800
C23         C  0.59510389  0.35671773  0.55931105     1.00900
C24         C  0.66743601  0.42304739  0.44853062     1.13800
C25         C  0.59734873  0.44205465  0.63071068     1.04600
O26         O  0.52453907  0.41638127  0.61419127    -0.95000
O27         O  0.50481209  0.43396439  0.53840984    -0.90700
O28         O  0.50462354  0.44776488  0.46478463    -0.83900
C29         C  0.49672627  0.44606409  0.50760992     1.11300
O30         O  0.66180136  0.53326354  0.47673849    -0.97000
Zr31       Zr  0.61150309  0.49425776  0.44775984     1.88900
O32         O  0.53972443  0.46784955  0.37152556    -0.73600
O33         O  0.56031679  0.49168756  0.57722638    -0.52900
O34         O  0.60775390  0.53530195  0.48531893    -0.97600
O35         O  0.64850597  0.52007729  0.38598088    -0.54800
O36         O  0.58639186  0.50978367  0.38875250    -0.74100
C37         C  0.56105524  0.49622759  0.36547770     0.98200
O38         O  0.47829116  0.39002309  0.40611097    -0.63000
O39         O  0.59512170  0.36821755  0.37149343    -0.57800
O40         O  0.53147546  0.40856074  0.34282792    -0.94400
O41         O  0.57227159  0.40242090  0.33422685    -0.92900
O42         O  0.53974798  0.32285676  0.45430392    -0.93200
O43         O  0.49095257  0.32704689  0.47156646    -0.92000
C44         C  0.54863078  0.40185388  0.31896717     1.17100
H45         H  0.60202592  0.37782074  0.47234992     0.33000
H46         H  0.50433748  0.39071702  0.50344607     0.43800
H47         H  0.58671913  0.45925365  0.36586377     0.37400
H48         H  0.62068612  0.48864978  0.54317204     0.33900
H49         H  0.50284581  0.32165680  0.56418691     0.25600
H50         H  0.55126948  0.49835456  0.55321226     0.31600
H51         H  0.61442591  0.55163676  0.46162961     0.37500
H52         H  0.55989580  0.32487296  0.45882540     0.31900
H53         H  0.60317134  0.36031743  0.39528741     0.30800
H54         H  0.63645920  0.46565250  0.33954812     0.32500
H55         H  0.65411033  0.54201138  0.38778263     0.31500
H56         H  0.49097877  0.33080542  0.43815197     0.35500
H57         H  0.47646763  0.38872652  0.37218452     0.28200
H58         H  0.66451870  0.48058087  0.58810242     0.32400
H59         H  0.67371182  0.52283945  0.47643461     0.35300
H60         H  0.57273793  0.35332584  0.37163552     0.27900
H61         H  0.47484583  0.36962851  0.41560567     0.40800
H62         H  0.52056930  0.43130302  0.63011332     0.30800
H63         H  0.51957684  0.35380521  0.58932010     0.38400
H64         H  0.63647394  0.51232352  0.35722515     0.30300
H65         H  0.54571216  0.48500393  0.60320830     0.30400
H66         H  0.68224375  0.48496532  0.54210984     0.30600
Zr67       Zr  0.59017051  0.41216352  0.02026333     2.17500
O68         O  0.63626273  0.44718662  0.06379862    -0.51700
O69         O  0.58446881  0.36246389  0.04219031    -0.74900
O70         O  0.57530680  0.40697708  0.10171792    -0.81700
O71         O  0.63017598  0.41414121  0.90957041    -0.83500
O72         O  0.53027215  0.40558816  0.10352215    -0.79100
O73         O  0.63585866  0.41532460  0.98708699    -0.90700
O74         O  0.53996250  0.32444254  0.01056442    -0.76700
O75         O  0.53625381  0.38243965  0.03077192    -0.86200
O76         O  0.56959527  0.37781281  0.95626841    -0.85900
O77         O  0.57361397  0.44938322  0.02176961    -0.72600
O78         O  0.60362563  0.44503216  0.95340276    -0.84800
Zr79       Zr  0.51016642  0.41713156  0.90315465     2.26400
Zr80       Zr  0.51911434  0.41817586  0.03074742     2.06300
Zr81       Zr  0.58178098  0.40971586  0.89039179     2.10000
Zr82       Zr  0.51574301  0.34794857  0.96808495     1.78800
O83         O  0.61360050  0.44783064  0.83245993    -0.93600
O84         O  0.48027636  0.32075315  0.03111211    -0.41400
O85         O  0.52743051  0.38042026  0.90197727    -0.78000
O86         O  0.49659948  0.38262946  0.96796780    -0.96700
O87         O  0.53198964  0.45182924  0.96638688    -0.90000
O88         O  0.56470603  0.44571041  0.89067383    -0.92800
C89         C  0.56463052  0.33369085  0.03400259     1.00900
C90         C  0.64527520  0.41572373  0.94578989     1.13800
C91         C  0.55173075  0.40402722  0.12284464     1.04600
O92         O  0.47748100  0.39501137  0.08646638    -0.95000
O93         O  0.46939293  0.40828777  0.01054393    -0.90700
O94         O  0.47943652  0.43521221  0.94551611    -0.83900
C95         C  0.46638539  0.42701802  0.98542766     1.11300
O96         O  0.63018511  0.51855338  0.99665176    -0.97000
Zr97       Zr  0.58556665  0.48074427  0.95282427     1.88900
O98         O  0.52222828  0.46399091  0.86204487    -0.73600
O99         O  0.53080845  0.46638094  0.06804602    -0.52900
O100        O  0.57956077  0.52019078  0.99121558    -0.97600
O101        O  0.63086261  0.51037453  0.90482409    -0.54800
O102        O  0.56747280  0.50201189  0.89186122    -0.74100
C103        C  0.54477998  0.49219686  0.86339690     0.98200
O104        O  0.45926337  0.38388403  0.87101544    -0.63000
O105        O  0.58758008  0.37271359  0.84427022    -0.57800
O106        O  0.52216380  0.41422275  0.82261320    -0.94400
O107        O  0.54305851  0.38557402  0.83238137    -0.92900
O108        O  0.51633428  0.31126772  0.91409566    -0.93200
O109        O  0.46499235  0.31072520  0.93824438    -0.92000
C110        C  0.53730966  0.40233028  0.80695702     1.17100
H111        H  0.57832946  0.36493948  0.95285536     0.33000
H112        H  0.47457223  0.36999245  0.97042556     0.43800
H113        H  0.57038280  0.45676648  0.86185612     0.37400
H114        H  0.58247965  0.46279495  0.04820315     0.33900
H115        H  0.49317803  0.32651386  0.05906349     0.25600
H116        H  0.51644630  0.47163442  0.05400923     0.31600
H117        H  0.59024393  0.53860171  0.97100291     0.37500
H118        H  0.51294720  0.29353592  0.93319151     0.31900
H119        H  0.60869784  0.38443166  0.83194988     0.30800
H120        H  0.63426814  0.45108093  0.83684552     0.32500
H121        H  0.62304342  0.51253250  0.87481141     0.31500
H122        H  0.46017895  0.29030768  0.95013515     0.35500
H123        H  0.45543047  0.39812904  0.85294907     0.28200
H124        H  0.64111293  0.43339355  0.08107681     0.32400
H125        H  0.64304117  0.50924760  0.99938661     0.35300
H126        H  0.58767829  0.35806668  0.86674086     0.27900
H127        H  0.46187228  0.37113392  0.84766107     0.40800
H128        H  0.46718653  0.37237150  0.08111323     0.30800
H129        H  0.46866162  0.33134730  0.03475716     0.38400
H130        H  0.63828584  0.49610360  0.89859832     0.30300
H131        H  0.52328923  0.46027929  0.09995095     0.30400
H132        H  0.62965526  0.45657794  0.08754316     0.30600
Zr133      Zr  0.38505294  0.56739208  0.27607151     2.17500
O134        O  0.33798386  0.53360246  0.31812241    -0.51700
O135        O  0.39338748  0.61727607  0.30207802    -0.74900
O136        O  0.40195514  0.57528944  0.35660415    -0.81700
O137        O  0.35579922  0.58071637  0.16436736    -0.83500
O138        O  0.41879327  0.54249447  0.36182745    -0.79100
O139        O  0.34402196  0.57160831  0.24020225    -0.90700
O140        O  0.44322824  0.65370399  0.28688741    -0.76700
O141        O  0.43775616  0.59177917  0.29522454    -0.86200
O142        O  0.41251534  0.60581597  0.21909733    -0.85900
O143        O  0.39618126  0.52608829  0.27348908    -0.72600
O144        O  0.37424935  0.53812918  0.20524568    -0.84800
Zr145      Zr  0.46946628  0.56463915  0.16753063     2.26400
Zr146      Zr  0.44908996  0.55168790  0.29397718     2.06300
Zr147      Zr  0.40146392  0.57761608  0.14943642     2.10000
Zr148      Zr  0.46527102  0.63030330  0.23926135     1.78800
O149        O  0.35944782  0.54600084  0.09679362    -0.93600
O150        O  0.50023555  0.65218609  0.30446354    -0.41400
O151        O  0.45517773  0.60339031  0.16742613    -0.78000
O152        O  0.47892761  0.59151968  0.23920946    -0.96700
O153        O  0.44177115  0.52505042  0.22281472    -0.90000
O154        O  0.41641821  0.53999395  0.14693160    -0.92800
C155        C  0.41670902  0.64511739  0.30364013     1.00900
C156        C  0.33870534  0.57733329  0.19921786     1.13800
C157        C  0.41403993  0.56265730  0.37961712     1.04600
O158        O  0.48715823  0.58262641  0.35228406    -0.95000
O159        O  0.49505363  0.55093394  0.28534245    -0.90700
O160        O  0.50489717  0.55199811  0.20867236    -0.83900
C161        C  0.51020889  0.54935728  0.25169022     1.11300
O162        O  0.34429840  0.45797891  0.23747322    -0.97000
Zr163      Zr  0.38970913  0.50005882  0.20057656     1.88900
O164        O  0.45823331  0.52011795  0.12062260    -0.73600
O165        O  0.43716332  0.50270877  0.32850848    -0.52900
O166        O  0.39847915  0.46178507  0.23655404    -0.97600
O167        O  0.34579768  0.47398887  0.14909190    -0.54800
O168        O  0.40902747  0.48224069  0.13572492    -0.74100
C169        C  0.43441202  0.49329309  0.11292805     0.98200
O170        O  0.52191215  0.60141504  0.14394834    -0.63000
O171        O  0.41511147  0.62661271  0.11313896    -0.57800
O172        O  0.46812155  0.57737165  0.08661495    -0.94400
O173        O  0.42473773  0.57927203  0.07692437    -0.92900
O174        O  0.47273657  0.67240649  0.18939081    -0.93200
O175        O  0.51787747  0.66582978  0.21454513    -0.92000
C176        C  0.44844761  0.57959236  0.06184204     1.17100
H177        H  0.40605359  0.62065153  0.21667954     0.33000
H178        H  0.50042005  0.60135514  0.24661655     0.43800
H179        H  0.41229068  0.53106912  0.11650301     0.37400
H180        H  0.38390043  0.51058143  0.29620189     0.33900
H181        H  0.48685836  0.64652999  0.33184773     0.25600
H182        H  0.44830861  0.49535492  0.30969950     0.31600
H183        H  0.40354623  0.45219782  0.21102949     0.37500
H184        H  0.47380737  0.68836052  0.21049426     0.31900
H185        H  0.40316925  0.62061323  0.08419403     0.30800
H186        H  0.36050367  0.56074297  0.07339640     0.32500
H187        H  0.35415308  0.48244342  0.11825631     0.31500
H188        H  0.52473346  0.68550583  0.23124879     0.35500
H189        H  0.52541654  0.59171919  0.11688378     0.28200
H190        H  0.33927799  0.54555251  0.34597743     0.32400
H191        H  0.33209073  0.46725991  0.24645538     0.35300
H192        H  0.40551554  0.63538526  0.13256591     0.27900
H193        H  0.52127119  0.61927530  0.13133942     0.40800
H194        H  0.48015575  0.56983657  0.38048359     0.30800
H195        H  0.50980671  0.63952165  0.30708185     0.38400
H196        H  0.33301701  0.48283519  0.15688746     0.30300
H197        H  0.44804083  0.50857832  0.35839476     0.30400
H198        H  0.34042353  0.51657339  0.32962946     0.30600
Zr199      Zr  0.41743782  0.60108956  0.76796927     2.17500
O200        O  0.36880016  0.57423268  0.80897484    -0.51700
O201        O  0.42518184  0.65083458  0.79511787    -0.74900
O202        O  0.42551655  0.59225046  0.84797074    -0.81700
O203        O  0.37961182  0.60006387  0.65559519    -0.83500
O204        O  0.47658453  0.61812611  0.84950107    -0.79100
O205        O  0.37266084  0.59761694  0.73286769    -0.90700
O206        O  0.46714229  0.68901880  0.75868838    -0.76700
O207        O  0.47107656  0.63244884  0.78123670    -0.86200
O208        O  0.43863259  0.63509908  0.70391282    -0.85900
O209        O  0.43367244  0.56378264  0.77210005    -0.72600
O210        O  0.40479788  0.56733009  0.70178328    -0.84800
Zr211      Zr  0.49943400  0.59679712  0.65699180     2.26400
Zr212      Zr  0.48789725  0.59632289  0.78510305     2.06300
Zr213      Zr  0.42741851  0.60236441  0.63863587     2.10000
Zr214      Zr  0.49217259  0.66574791  0.71720422     1.78800
O215        O  0.39667296  0.56220189  0.58228301    -0.93600
O216        O  0.52782888  0.69771849  0.77753886    -0.41400
O217        O  0.48173538  0.63300413  0.65139472    -0.78000
O218        O  0.51199612  0.63146217  0.72194577    -0.96700
O219        O  0.47649452  0.56311207  0.72029998    -0.90000
O220        O  0.44529378  0.56715380  0.64185756    -0.92800
C221        C  0.44371283  0.67957661  0.78518939     1.00900
C222        C  0.36421551  0.59843608  0.69159338     1.13800
C223        C  0.45089450  0.60289623  0.86970836     1.04600
O224        O  0.52596085  0.61237278  0.84591306    -0.95000
O225        O  0.53578621  0.60102672  0.76589229    -0.90700
O226        O  0.52318943  0.57251827  0.70233216    -0.83900
C227        C  0.53499443  0.57913567  0.74311160     1.11300
O228        O  0.37792783  0.49377782  0.74415348    -0.97000
Zr229      Zr  0.42378757  0.53229277  0.70366326     1.88900
O230        O  0.49021122  0.55054347  0.61858786    -0.73600
O231        O  0.47002033  0.54778721  0.82599152    -0.52900
O232        O  0.43143403  0.49601837  0.74811053    -0.97600
O233        O  0.38063847  0.50107217  0.65252623    -0.54800
O234        O  0.44486082  0.51126237  0.64605112    -0.74100
C235        C  0.46855243  0.52203668  0.61923533     0.98200
O236        O  0.55135872  0.63008914  0.62840045    -0.63000
O237        O  0.41605188  0.63470049  0.59084386    -0.57800
O238        O  0.48737250  0.59578400  0.57519384    -0.94400
O239        O  0.46544152  0.62405298  0.57867872    -0.92900
O240        O  0.49011399  0.69914467  0.65873725    -0.93200
O241        O  0.54233392  0.70453803  0.68763066    -0.92000
C242        C  0.47250809  0.60697834  0.55622192     1.17100
H243        H  0.42971728  0.64776668  0.70007563     0.33000
H244        H  0.53394540  0.64383566  0.72593249     0.43800
H245        H  0.44037971  0.55564217  0.61341114     0.37400
H246        H  0.42378409  0.55008623  0.79784775     0.33900
H247        H  0.51580030  0.69058240  0.80636884     0.25600
H248        H  0.48863510  0.54674651  0.83076194     0.31600
H249        H  0.45323856  0.50280671  0.74353570     0.37500
H250        H  0.47370039  0.70270642  0.66892377     0.31900
H251        H  0.43531418  0.65517905  0.59012421     0.30800
H252        H  0.37558073  0.55779059  0.58674409     0.32500
H253        H  0.37870072  0.48051110  0.65181187     0.31500
H254        H  0.54612624  0.69396820  0.66207128     0.35500
H255        H  0.54966762  0.62675350  0.59469819     0.28200
H256        H  0.37066099  0.58894255  0.83321016     0.32400
H257        H  0.36707911  0.50470611  0.75192152     0.35300
H258        H  0.41378802  0.62634122  0.55929859     0.27900
H259        H  0.55547737  0.65140190  0.63245635     0.40800
H260        H  0.53620361  0.63526003  0.84704218     0.30800
H261        H  0.54242332  0.69046771  0.77996668     0.38400
H262        H  0.38813500  0.50962270  0.62145043     0.30300
H263        H  0.46458037  0.55142892  0.85707861     0.30400
H264        H  0.36859662  0.55707460  0.82569418     0.30600
Zr265      Zr  0.09374235  0.58564730  0.20592408     2.17500
O266        O  0.07381982  0.61719901  0.23417302    -0.51700
O267        O  0.06113628  0.53927175  0.25040008    -0.74900
O268        O  0.04398221  0.56369169  0.16380059    -0.81700
O269        O  0.15734143  0.62019598  0.27597732    -0.83500
O270        O  0.06138017  0.59168018  0.10007828    -0.79100
O271        O  0.10718939  0.58966803  0.28678940    -0.90700
O272        O  0.06981445  0.50218883  0.22362120    -0.76700
O273        O  0.08130808  0.54962926  0.14484510    -0.86200
O274        O  0.12208768  0.56043821  0.22002456    -0.85900
O275        O  0.11398735  0.61925886  0.13987662    -0.72600
O276        O  0.14840609  0.62446656  0.20744693    -0.84800
Zr277      Zr  0.18087154  0.59334323  0.09001820     2.26400
Zr278      Zr  0.10123928  0.58231016  0.07911211     2.06300
Zr279      Zr  0.17555568  0.59813543  0.21997477     2.10000
Zr280      Zr  0.10827759  0.52395846  0.16056735     1.78800
O281        O  0.22173771  0.63602892  0.26088499    -0.93600
O282        O  0.06367168  0.48104291  0.12314548    -0.41400
O283        O  0.16235802  0.56185662  0.15850960    -0.78000
O284        O  0.12653302  0.55392296  0.08991475    -0.96700
O285        O  0.15453938  0.62016274  0.07919285    -0.90000
O286        O  0.19489116  0.62908288  0.15240078    -0.92800
C287        C  0.05700480  0.51192272  0.25188878     1.00900
C288        C  0.13470353  0.60283289  0.30181989     1.13800
C289        C  0.03921264  0.57150570  0.12380819     1.04600
O290        O  0.06480576  0.53179924  0.04622005    -0.95000
O291        O  0.12678713  0.59792902  0.00787453    -0.90700
O292        O  0.16902325  0.59405087  0.00823334    -0.83900
C293        C  0.14883470  0.59786890  0.98786573     1.11300
O294        O  0.15755204  0.69071724  0.18214488    -0.97000
Zr295      Zr  0.16845554  0.65575528  0.14025822     1.88900
O296        O  0.22234805  0.64385638  0.06099701    -0.73600
O297        O  0.08194320  0.59775748  0.01396137    -0.52900
O298        O  0.15737717  0.68562382  0.08657579    -0.97600
O299        O  0.21106887  0.69398311  0.18698043    -0.54800
O300        O  0.20999155  0.67897886  0.08411472    -0.74100
C301        C  0.22670342  0.67144496  0.06114969     0.98200
O302        O  0.19308138  0.56173246  0.04155557    -0.63000
O303        O  0.17019996  0.56290199  0.28140720    -0.57800
O304        O  0.22282688  0.58977259  0.12566003    -0.94400
O305        O  0.21871933  0.59201498  0.20319759    -0.92900
O306        O  0.12333015  0.49850647  0.21648684    -0.93200
O307        O  0.12316983  0.49021298  0.12432795    -0.92000
C308        C  0.23184292  0.58953609  0.16711408     1.17100
H309        H  0.11725843  0.55010916  0.24936555     0.33000
H310        H  0.12204701  0.54000085  0.06389716     0.43800
H311        H  0.21693010  0.64314904  0.15432844     0.37400
H312        H  0.10431271  0.63130973  0.13709950     0.33900
H313        H  0.04611760  0.48252449  0.13405791     0.25600
H314        H  0.08561072  0.61850360  0.02197788     0.31600
H315        H  0.13563601  0.67879054  0.09193124     0.37500
H316        H  0.10583710  0.47683102  0.21773914     0.31900
H317        H  0.17137809  0.54614361  0.26566669     0.30800
H318        H  0.21551124  0.64747401  0.28136230     0.32500
H319        H  0.22971741  0.69949748  0.16910892     0.31500
H320        H  0.13019083  0.49887111  0.09315145     0.35500
H321        H  0.19147341  0.54531436  0.06203898     0.28200
H322        H  0.09215680  0.63679673  0.24434462     0.32400
H323        H  0.13988612  0.67691616  0.20198275     0.35300
H324        H  0.18956262  0.57437345  0.29898642     0.27900
H325        H  0.21522622  0.57508653  0.03483023     0.40800
H326        H  0.04636607  0.53269231  0.03899326     0.30800
H327        H  0.06585995  0.48683580  0.09028234     0.38400
H328        H  0.21168920  0.68212167  0.21357485     0.30300
H329        H  0.05939515  0.58386567  0.01367642     0.30400
H330        H  0.06298241  0.60694574  0.26299301     0.30600
Zr331      Zr  0.10588264  0.57969570  0.69175352     2.17500
O332        O  0.08481210  0.61131856  0.71467897    -0.51700
O333        O  0.07233157  0.53562317  0.73862327    -0.74900
O334        O  0.05629521  0.55776964  0.65043683    -0.81700
O335        O  0.16994032  0.60534005  0.77826515    -0.83500
O336        O  0.06952773  0.57308000  0.57689104    -0.79100
O337        O  0.12208064  0.59747037  0.77032612    -0.90700
O338        O  0.07789955  0.49553719  0.71712814    -0.76700
O339        O  0.09376090  0.54067160  0.63565330    -0.86200
O340        O  0.13337528  0.55523095  0.71372538    -0.85900
O341        O  0.12425977  0.60835568  0.62172059    -0.72600
O342        O  0.15975331  0.61839313  0.69332824    -0.84800
Zr343      Zr  0.19337972  0.58413092  0.58375500     2.26400
Zr344      Zr  0.11362337  0.56919171  0.56586752     2.06300
Zr345      Zr  0.18690141  0.59262750  0.71043324     2.10000
Zr346      Zr  0.12020698  0.51583458  0.65907242     1.78800
O347        O  0.22865709  0.63620014  0.75143528    -0.93600
O348        O  0.07877213  0.47176893  0.61813976    -0.41400
O349        O  0.17453410  0.55403647  0.65376677    -0.78000
O350        O  0.13974864  0.54304793  0.58682505    -0.96700
O351        O  0.16620706  0.60922023  0.56498251    -0.90000
O352        O  0.20521355  0.62177610  0.64197278    -0.92800
C353        C  0.06563011  0.50749117  0.74224823     1.00900
C354        C  0.14635053  0.60487497  0.79372712     1.13800
C355        C  0.04958725  0.56015998  0.60840991     1.04600
O356        O  0.07120870  0.52512748  0.52648639    -0.95000
O357        O  0.13152102  0.55450136  0.50028729    -0.90700
O358        O  0.18252480  0.58651035  0.50252597    -0.83900
C359        C  0.15700375  0.57231414  0.48065615     1.11300
O360        O  0.15932599  0.68007989  0.64831513    -0.97000
Zr361      Zr  0.17785773  0.64659219  0.62348013     1.88900
O362        O  0.23608298  0.63436500  0.55593771    -0.73600
O363        O  0.11156717  0.60261954  0.50749625    -0.52900
O364        O  0.17082762  0.67450430  0.56125964    -0.97600
O365        O  0.21208802  0.68633914  0.67796570    -0.54800
O366        O  0.22479235  0.67030421  0.57896534    -0.74100
C367        C  0.24192126  0.66249530  0.55797106     0.98200
O368        O  0.20478165  0.54871349  0.54422120    -0.63000
O369        O  0.18707105  0.55468378  0.76199536    -0.57800
O370        O  0.23894356  0.58936824  0.61977922    -0.94400
O371        O  0.23527008  0.59573552  0.69636459    -0.92900
O372        O  0.13465606  0.49495459  0.72307642    -0.93200
O373        O  0.13430726  0.47956758  0.62998060    -0.92000
C374        C  0.24932504  0.59369763  0.66117918     1.17100
H375        H  0.12816753  0.54684200  0.74423131     0.33000
H376        H  0.13620675  0.52737970  0.56434593     0.43800
H377        H  0.22702350  0.63648906  0.64472863     0.37400
H378        H  0.11321976  0.61861730  0.61511858     0.33900
H379        H  0.06571333  0.45725211  0.64257429     0.25600
H380        H  0.13318801  0.61846675  0.50088701     0.31600
H381        H  0.18789251  0.69626450  0.56479231     0.37500
H382        H  0.11637591  0.47424319  0.72904460     0.31900
H383        H  0.20868962  0.56389708  0.77151607     0.30800
H384        H  0.23145342  0.62704478  0.77970277     0.32500
H385        H  0.22552440  0.70465441  0.65875708     0.31500
H386        H  0.12195274  0.46021908  0.64775370     0.35500
H387        H  0.18709570  0.53636179  0.52354317     0.28200
H388        H  0.07338832  0.61173724  0.68750441     0.32400
H389        H  0.15152753  0.67304511  0.67986057     0.35300
H390        H  0.17649610  0.55530232  0.79015223     0.27900
H391        H  0.22197472  0.56209807  0.52336950     0.40800
H392        H  0.05562380  0.51384023  0.55059571     0.30800
H393        H  0.06631230  0.47967394  0.60489088     0.38400
H394        H  0.22565386  0.67924508  0.68939632     0.30300
H395        H  0.10420366  0.58967210  0.47936494     0.30400
H396        H  0.10282289  0.63265315  0.71665819     0.30600
Zr397      Zr  0.90506398  0.40831061  0.45681855     2.17500
O398        O  0.92376317  0.37613327  0.48666532    -0.51700
O399        O  0.93858907  0.45459875  0.49967602    -0.74900
O400        O  0.95617565  0.43428026  0.41816843    -0.81700
O401        O  0.83826448  0.37580627  0.53165814    -0.83500
O402        O  0.94262655  0.40818122  0.35224725    -0.79100
O403        O  0.88954032  0.40414725  0.53701651    -0.90700
O404        O  0.93338803  0.49339763  0.47089203    -0.76700
O405        O  0.91847826  0.44458098  0.39638649    -0.86200
O406        O  0.87759830  0.43422080  0.47053651    -0.85900
O407        O  0.88637940  0.37604521  0.38924230    -0.72600
O408        O  0.85088919  0.36940443  0.45569462    -0.84800
Zr409      Zr  0.82231129  0.40477320  0.33814684     2.26400
Zr410      Zr  0.90046756  0.41315402  0.32903672     2.06300
Zr411      Zr  0.82430014  0.39633936  0.46783112     2.10000
Zr412      Zr  0.89295662  0.47157037  0.41180625     1.78800
O413        O  0.77625693  0.35375900  0.49811697    -0.93600
O414        O  0.93766278  0.51254217  0.37180211    -0.41400
O415        O  0.83909687  0.43410724  0.40852406    -0.78000
O416        O  0.87646222  0.44282881  0.34033779    -0.96700
O417        O  0.84705711  0.37655788  0.32616278    -0.90000
O418        O  0.80633359  0.36745642  0.39835417    -0.92800
C419        C  0.94524468  0.48280807  0.49907048     1.00900
C420        C  0.86272734  0.39195398  0.55488260     1.13800
C421        C  0.96308706  0.42879178  0.37797085     1.04600
O422        O  0.94323244  0.45883962  0.29345624    -0.95000
O423        O  0.88421977  0.41466058  0.25343786    -0.90700
O424        O  0.83500757  0.40345203  0.25716419    -0.83900
C425        C  0.85903492  0.40847239  0.23513209     1.11300
O426        O  0.84149365  0.29920831  0.40733181    -0.97000
Zr427      Zr  0.83194277  0.34008861  0.38612621     1.88900
O428        O  0.77917154  0.35609293  0.30964416    -0.73600
O429        O  0.90485611  0.37788085  0.27663361    -0.52900
O430        O  0.84169689  0.31253979  0.32614936    -0.97600
O431        O  0.79371472  0.30540271  0.44170087    -0.54800
O432        O  0.78727185  0.31862752  0.33591662    -0.74100
C433        C  0.77208438  0.32769454  0.31228362     0.98200
O434        O  0.81412487  0.43936985  0.29007817    -0.63000
O435        O  0.82507949  0.42959706  0.52936707    -0.57800
O436        O  0.78109491  0.40968108  0.37185621    -0.94400
O437        O  0.78388993  0.40588394  0.44934137    -0.92900
O438        O  0.88199741  0.49873661  0.47099285    -0.93200
O439        O  0.87643537  0.50453940  0.37765513    -0.92000
C440        C  0.77202615  0.40987400  0.41315675     1.17100
H441        H  0.88230703  0.44454889  0.50004433     0.33000
H442        H  0.88162667  0.45720002  0.31517112     0.43800
H443        H  0.78435231  0.35388659  0.39969248     0.37400
H444        H  0.89644882  0.36441446  0.38593139     0.33900
H445        H  0.92959572  0.52006074  0.34747921     0.25600
H446        H  0.92498465  0.39072887  0.26146409     0.31600
H447        H  0.83971002  0.32134667  0.29689977     0.37500
H448        H  0.86048955  0.49277650  0.46566494     0.31900
H449        H  0.82577899  0.44722814  0.51334178     0.30800
H450        H  0.77886897  0.35502236  0.53194027     0.32500
H451        H  0.80554710  0.30614915  0.46913657     0.31500
H452        H  0.85617691  0.48988014  0.36398360     0.35500
H453        H  0.79482487  0.42553495  0.27334669     0.28200
H454        H  0.91220046  0.35645228  0.46925263     0.32400
H455        H  0.86097733  0.30998605  0.42472296     0.35300
H456        H  0.80429234  0.41793270  0.54289998     0.27900
H457        H  0.80905879  0.45139877  0.31135045     0.40800
H458        H  0.93529238  0.47259408  0.28667121     0.30800
H459        H  0.94745318  0.52983540  0.39421905     0.38400
H460        H  0.78523649  0.28427395  0.42896914     0.30300
H461        H  0.90732326  0.36341232  0.29647321     0.30400
H462        H  0.91547267  0.37069260  0.51829217     0.30600
Zr463      Zr  0.90201923  0.42872467  0.93821902     2.17500
O464        O  0.91952568  0.39332348  0.95598320    -0.51700
O465        O  0.93629042  0.47200034  0.98713080    -0.74900
O466        O  0.95147391  0.44619381  0.89720737    -0.81700
O467        O  0.83446581  0.39211274  0.02317998    -0.83500
O468        O  0.94217719  0.44767080  0.82098384    -0.79100
O469        O  0.88608855  0.41311315  0.01766536    -0.90700
O470        O  0.92610779  0.51008037  0.97361515    -0.76700
O471        O  0.91340696  0.46960385  0.88636935    -0.86200
O472        O  0.87341247  0.45136173  0.96409768    -0.85900
O473        O  0.88434203  0.40383498  0.86516541    -0.72600
O474        O  0.84832463  0.38886459  0.93881373    -0.84800
Zr475      Zr  0.81345342  0.42641034  0.83498583     2.26400
Zr476      Zr  0.89442752  0.44497746  0.81371329     2.06300
Zr477      Zr  0.82010910  0.41295135  0.96087461     2.10000
Zr478      Zr  0.88584163  0.49239271  0.91300787     1.78800
O479        O  0.77518140  0.36962889  0.99678242    -0.93600
O480        O  0.93029969  0.53374927  0.87294916    -0.41400
O481        O  0.83193444  0.45320251  0.90760499    -0.78000
O482        O  0.86669622  0.46880460  0.83820422    -0.96700
O483        O  0.84241861  0.40398195  0.81297396    -0.90000
O484        O  0.80230210  0.38685300  0.88951598    -0.92800
C485        C  0.94039310  0.49890891  0.99532519     1.00900
C486        C  0.86066153  0.40028034  0.04018560     1.13800
C487        C  0.95946546  0.44988887  0.85418703     1.04600
O488        O  0.93549425  0.49316038  0.78053968    -0.95000
O489        O  0.87107359  0.45461985  0.74942631    -0.90700
O490        O  0.82150098  0.41884759  0.75427712    -0.83900
C491        C  0.84653748  0.43295298  0.73141131     1.11300
O492        O  0.85096653  0.33106670  0.88476533    -0.97000
Zr493      Zr  0.83108963  0.36428192  0.86595027     1.88900
O494        O  0.77087155  0.37721951  0.80454768    -0.73600
O495        O  0.89853143  0.41483005  0.75159058    -0.52900
O496        O  0.84141080  0.34173500  0.79940319    -0.97600
O497        O  0.79404373  0.32016861  0.91163109    -0.54800
O498        O  0.78634889  0.34300348  0.81693522    -0.74100
C499        C  0.76799052  0.35043301  0.79947785     0.98200
O500        O  0.80253675  0.46198251  0.79518545    -0.63000
O501        O  0.82465499  0.44833306  0.02199090    -0.57800
O502        O  0.76996617  0.42351805  0.87405719    -0.94400
O503        O  0.77369302  0.41496671  0.94969559    -0.92900
O504        O  0.86995364  0.51409825  0.97417378    -0.93200
O505        O  0.87399778  0.53118988  0.88890430    -0.92000
C506        C  0.76013424  0.41919241  0.91575876     1.17100
H507        H  0.87858214  0.45890878  0.99532405     0.33000
H508        H  0.86988162  0.48493619  0.81700618     0.43800
H509        H  0.78063022  0.37176179  0.89140749     0.37400
H510        H  0.89603827  0.39460872  0.85601753     0.33900
H511        H  0.93201676  0.55328154  0.88331580     0.25600
H512        H  0.91818759  0.42926684  0.73618090     0.31600
H513        H  0.83932038  0.35251837  0.77254431     0.37500
H514        H  0.88889970  0.53340263  0.98360995     0.31900
H515        H  0.80541471  0.44854155  0.02083709     0.30800
H516        H  0.77026670  0.37898245  0.02283517     0.32500
H517        H  0.78638611  0.30216206  0.89061686     0.31500
H518        H  0.85519420  0.51949059  0.87010814     0.35500
H519        H  0.81942506  0.47286670  0.77274171     0.28200
H520        H  0.91909201  0.38364230  0.92609632     0.32400
H521        H  0.85837081  0.33667878  0.91681642     0.35300
H522        H  0.82321194  0.43736201  0.05092846     0.27900
H523        H  0.78428389  0.44841502  0.77616238     0.40800
H524        H  0.92551883  0.50032749  0.75894965     0.30800
H525        H  0.94813765  0.53423406  0.88716148     0.38400
H526        H  0.77644797  0.32306280  0.91550214     0.30300
H527        H  0.90206811  0.39950649  0.76704120     0.30400
H528        H  0.90255844  0.37636819  0.97371461     0.30600
Zr529      Zr  0.58172467  0.09716477  0.06394262     2.17500
O530        O  0.61157032  0.07508759  0.03706449    -0.51700
O531        O  0.53471530  0.06452554  0.02195167    -0.74900
O532        O  0.56372986  0.04649387  0.10335704    -0.81700
O533        O  0.62409846  0.16146102  0.98627236    -0.83500
O534        O  0.55943681  0.05516566  0.17898858    -0.79100
O535        O  0.58982334  0.11048654  0.98245610    -0.90700
O536        O  0.50175073  0.08104350  0.03632262    -0.76700
O537        O  0.54359436  0.08966492  0.11796080    -0.86200
O538        O  0.56389033  0.13103073  0.04182926    -0.85900
O539        O  0.60865504  0.11364905  0.13585196    -0.72600
O540        O  0.62520435  0.14992141  0.06394003    -0.84800
Zr541      Zr  0.59531814  0.19170163  0.17010271     2.26400
Zr542      Zr  0.57012623  0.10695467  0.18907507     2.06300
Zr543      Zr  0.60662021  0.18327654  0.04358304     2.10000
Zr544      Zr  0.52548915  0.12244907  0.09526858     1.78800
O545        O  0.65561950  0.22927372  0.02415801    -0.93600
O546        O  0.48028802  0.08125770  0.13395482    -0.41400
O547        O  0.56832283  0.17478931  0.09822981    -0.78000
O548        O  0.55093573  0.13949005  0.16895580    -0.96700
O549        O  0.61323007  0.15838515  0.19038253    -0.90000
O550        O  0.63328148  0.19995548  0.11470690    -0.92800
C551        C  0.50946215  0.06360652  0.01503276     1.00900
C552        C  0.60615977  0.13712259  0.96333404     1.13800
C553        C  0.55779975  0.03769686  0.14594308     1.04600
O554        O  0.51859229  0.07485511  0.22006249    -0.95000
O555        O  0.57056176  0.12942006  0.26148553    -0.90700
O556        O  0.59400598  0.18160714  0.25270588    -0.83900
C557        C  0.58334784  0.15700908  0.27745026     1.11300
O558        O  0.67935846  0.14291968  0.10791933    -0.97000
Zr559      Zr  0.65108954  0.16648396  0.13613901     1.88900
O560        O  0.64579743  0.23088113  0.19977293    -0.73600
O561        O  0.59596190  0.09370368  0.24699096    -0.52900
O562        O  0.67186065  0.15315065  0.20148050    -0.97600
O563        O  0.69528438  0.20533281  0.09266262    -0.54800
O564        O  0.67619248  0.21108329  0.18721304    -0.74100
C565        C  0.67100594  0.23125775  0.20492678     0.98200
O566        O  0.56677560  0.20997524  0.21316764    -0.63000
O567        O  0.58802242  0.18943113  0.96962508    -0.57800
O568        O  0.59546792  0.23436923  0.12890885    -0.94400
O569        O  0.59429941  0.22369852  0.05261299    -0.92900
O570        O  0.50810679  0.14328248  0.03526775    -0.93200
O571        O  0.49383174  0.14199002  0.12404746    -0.92000
C572        C  0.59251961  0.23931029  0.08625920     1.17100
H573        H  0.55502545  0.12663192  0.01141443     0.33000
H574        H  0.53650903  0.13766384  0.19207534     0.43800
H575        H  0.64960647  0.22141012  0.11311769     0.37400
H576        H  0.61607358  0.10013778  0.14385968     0.33900
H577        H  0.46273972  0.07968941  0.11701563     0.25600
H578        H  0.57994517  0.07375663  0.26042728     0.31600
H579        H  0.66400387  0.15838844  0.22901512     0.37500
H580        H  0.52411685  0.16556935  0.03375661     0.31900
H581        H  0.56666887  0.18383991  0.97544129     0.30800
H582        H  0.66783838  0.22116344  0.01050369     0.32500
H583        H  0.69361967  0.19571471  0.06224489     0.31500
H584        H  0.49759332  0.14456111  0.15760749     0.35500
H585        H  0.57983129  0.23288869  0.21332453     0.28200
H586        H  0.63264307  0.08984022  0.04793932     0.32400
H587        H  0.69842320  0.15220374  0.12629108     0.35300
H588        H  0.59937140  0.21206470  0.96399366     0.27900
H589        H  0.54917947  0.20525397  0.19320226     0.40800
H590        H  0.50954370  0.05497486  0.20306478     0.30800
H591        H  0.47984862  0.06197683  0.12579339     0.38400
H592        H  0.71328448  0.20648675  0.10745941     0.30300
H593        H  0.60946971  0.08863912  0.22957833     0.30400
H594        H  0.61274519  0.07745875  0.00322287     0.30600
Zr595      Zr  0.59265783  0.10675198  0.56320293     2.17500
O596        O  0.62637090  0.08844117  0.54026116    -0.51700
O597        O  0.55034298  0.07173188  0.51484209    -0.74900
O598        O  0.56497245  0.05521600  0.60399960    -0.81700
O599        O  0.62819188  0.17447514  0.48915604    -0.83500
O600        O  0.58585757  0.06864670  0.67401513    -0.79100
O601        O  0.60037702  0.12276937  0.48266919    -0.90700
O602        O  0.51173759  0.07963177  0.53337566    -0.76700
O603        O  0.55442999  0.09372285  0.61956889    -0.86200
O604        O  0.56799916  0.13469432  0.54228435    -0.85900
O605        O  0.62102242  0.12571315  0.63400414    -0.72600
O606        O  0.63031662  0.16200895  0.56424162    -0.84800
Zr607      Zr  0.59346603  0.19245948  0.67494499     2.26400
Zr608      Zr  0.58185028  0.11292170  0.69008674     2.06300
Zr609      Zr  0.60451546  0.18926387  0.54686572     2.10000
Zr610      Zr  0.52875348  0.11912469  0.59659283     1.78800
O611        O  0.64046204  0.23182087  0.49771554    -0.93600
O612        O  0.48828997  0.07069513  0.62992330    -0.41400
O613        O  0.56543015  0.17436896  0.60330130    -0.78000
O614        O  0.55427441  0.13789085  0.67002806    -0.96700
O615        O  0.61990193  0.16661252  0.69307613    -0.90000
O616        O  0.63160042  0.20704794  0.61719524    -0.92800
C617        C  0.52308540  0.06623068  0.50933586     1.06900
C618        C  0.61244033  0.15004221  0.46518353     1.13800
C619        C  0.56802570  0.04800583  0.64561495     1.04600
O620        O  0.53953714  0.06849797  0.72866561    -0.95000
O621        O  0.56486278  0.12849185  0.75555342    -0.90700
O622        O  0.59499565  0.18028516  0.75610553    -0.83900
C623        C  0.58116916  0.15397651  0.77675270     1.11300
O624        O  0.69294108  0.16550191  0.60840437    -0.97000
Zr625      Zr  0.65741504  0.18065811  0.63511118     1.88900
O626        O  0.64160957  0.23708593  0.70361531    -0.73600
O627        O  0.61461138  0.11260964  0.75066519    -0.52900
O628        O  0.68357901  0.17365940  0.69960491    -0.97600
O629        O  0.69734217  0.21900068  0.58483358    -0.54800
O630        O  0.67862933  0.22784004  0.68101174    -0.74100
C631        C  0.66979367  0.24440384  0.70171034     0.98200
O632        O  0.55767108  0.20284867  0.71440201    -0.63000
O633        O  0.56563481  0.18410076  0.49304129    -0.57800
O634        O  0.59552301  0.23720730  0.64082090    -0.94400
O635        O  0.60991978  0.23916310  0.56618638    -0.92900
O636        O  0.50583948  0.13821897  0.54284714    -0.93200
O637        O  0.48709566  0.12271720  0.63040788    -0.92000
C638        C  0.60345921  0.25030265  0.60127236     1.17100
H639        H  0.55914319  0.12974368  0.51184520     0.33000
H640        H  0.53836902  0.13338068  0.69212262     0.43800
H641        H  0.64570455  0.22917436  0.61558323     0.37400
H642        H  0.63179663  0.11507440  0.64032670     0.33900
H643        H  0.49420068  0.05525987  0.62319628     0.25600
H644        H  0.63082131  0.11121251  0.73422362     0.31600
H645        H  0.67504958  0.17788853  0.72732847     0.37500
H646        H  0.51277310  0.15953820  0.55345460     0.31900
H647        H  0.57543748  0.18800840  0.46242181     0.30800
H648        H  0.62763246  0.23666461  0.47820775     0.32500
H649        H  0.70855986  0.23814054  0.60353575     0.31500
H650        H  0.49731049  0.14059441  0.65175644     0.35500
H651        H  0.54292295  0.18305336  0.72959942     0.28200
H652        H  0.61227337  0.06665045  0.53073802     0.32400
H653        H  0.68733669  0.15960938  0.57577273     0.35300
H654        H  0.56389992  0.20243901  0.49907308     0.27900
H655        H  0.56964926  0.21701298  0.73993268     0.40800
H656        H  0.52341162  0.05839581  0.70491756     0.30800
H657        H  0.49096428  0.07394890  0.66358492     0.38400
H658        H  0.68623442  0.22376653  0.56160568     0.30300
H659        H  0.62528682  0.13380323  0.76379305     0.30400
H660        H  0.63548053  0.08688171  0.56939553     0.30600
Zr661      Zr  0.42668881  0.89810115  0.31821829     2.17500
O662        O  0.39410332  0.91819098  0.29742330    -0.51700
O663        O  0.46884293  0.92864062  0.26604092    -0.74900
O664        O  0.45128013  0.94994752  0.35679387    -0.81700
O665        O  0.39416043  0.82812820  0.23853580    -0.83500
O666        O  0.43683496  0.93880946  0.43123578    -0.79100
O667        O  0.40895987  0.87913872  0.23991776    -0.90700
O668        O  0.50720872  0.92096672  0.28722068    -0.76700
O669        O  0.46519749  0.91065604  0.37431324    -0.86200
O670        O  0.44946257  0.86852188  0.29816730    -0.85900
O671        O  0.39955456  0.88172472  0.39005197    -0.72600
O672        O  0.38760012  0.84392626  0.32114778    -0.84800
Zr673      Zr  0.42278008  0.81112736  0.43120396     2.26400
Zr674      Zr  0.43850243  0.89284105  0.44581963     2.06300
Zr675      Zr  0.41149068  0.81485718  0.30495144     2.10000
Zr676      Zr  0.48898977  0.88309276  0.35222015     1.78800
O677        O  0.36623066  0.77201441  0.26848862    -0.93600
O678        O  0.53004514  0.93020358  0.38812482    -0.41400
O679        O  0.45085167  0.82840263  0.35973692    -0.78000
O680        O  0.46359353  0.86531827  0.42588592    -0.96700
O681        O  0.39892835  0.83973337  0.44922303    -0.90000
O682        O  0.38428781  0.79827205  0.37494001    -0.92800
C683        C  0.49585719  0.93325810  0.26098460     1.00900
C684        C  0.39809148  0.85267155  0.21963492     1.13800
C685        C  0.44999501  0.95816976  0.39862580     1.04600
O686        O  0.48206676  0.93741634  0.48234305    -0.95000
O687        O  0.45324745  0.87540790  0.51234574    -0.90700
O688        O  0.42223784  0.82363840  0.51180967    -0.83900
C689        C  0.43563648  0.84980981  0.53275671     1.11300
O690        O  0.32445553  0.84091722  0.36522188    -0.97000
Zr691      Zr  0.36119452  0.82761147  0.39248984     1.88900
O692        O  0.37306312  0.76969525  0.46216719    -0.73600
O693        O  0.40591111  0.89120806  0.50843091    -0.52900
O694        O  0.34041581  0.84420301  0.45385836    -0.97600
O695        O  0.31945550  0.78833844  0.34548498    -0.54800
O696        O  0.33848242  0.78331304  0.44329599    -0.74100
C697        C  0.34595283  0.76565772  0.46357224     0.98200
O698        O  0.45752854  0.79928049  0.47051606    -0.63000
O699        O  0.44533946  0.81319958  0.24736368    -0.57800
O700        O  0.41871505  0.76461857  0.39807296    -0.94400
O701        O  0.41034000  0.76722320  0.32209583    -0.92900
O702        O  0.51163824  0.86243807  0.30050797    -0.93200
O703        O  0.52929036  0.87705393  0.38537178    -0.92000
C704        C  0.41361848  0.75361915  0.35691323     1.17100
H705        H  0.45708609  0.87222952  0.26703269     0.33000
H706        H  0.47935517  0.86934468  0.44795828     0.43800
H707        H  0.36942920  0.77629561  0.37360078     0.37400
H708        H  0.38989703  0.89347290  0.39631638     0.33900
H709        H  0.52489084  0.94629923  0.38245858     0.25600
H710        H  0.42032860  0.90427898  0.53297433     0.31600
H711        H  0.34593304  0.83779593  0.48261510     0.37500
H712        H  0.52165071  0.87816832  0.27600440     0.31900
H713        H  0.44317619  0.82345788  0.21989674     0.30800
H714        H  0.37269813  0.75793720  0.25646910     0.32500
H715        H  0.31426993  0.76822139  0.35908243     0.31500
H716        H  0.51846333  0.85558736  0.39739011     0.35500
H717        H  0.47417371  0.81950077  0.48238145     0.28200
H718        H  0.37641929  0.90083494  0.28125740     0.32400
H719        H  0.33711068  0.86120280  0.34982269     0.35300
H720        H  0.43533628  0.79108283  0.23846650     0.27900
H721        H  0.44627754  0.78755325  0.49827287     0.40800
H722        H  0.49552331  0.94986143  0.45660717     0.30800
H723        H  0.52699501  0.92623022  0.42160795     0.38400
H724        H  0.32908108  0.78898787  0.31561447     0.30300
H725        H  0.39684083  0.90319729  0.49733327     0.30400
H726        H  0.40560705  0.93364566  0.27308905     0.30600
Zr727      Zr  0.41203270  0.90766092  0.80903385     2.17500
O728        O  0.38045272  0.92616109  0.77706532    -0.51700
O729        O  0.45861189  0.94231679  0.76706715    -0.74900
O730        O  0.43560560  0.95782405  0.85184800    -0.81700
O731        O  0.37929509  0.84351134  0.73283854    -0.83500
O732        O  0.40925378  0.94149236  0.91722302    -0.79100
O733        O  0.41050893  0.89476995  0.72788813    -0.90700
O734        O  0.49471053  0.93218492  0.79159721    -0.76700
O735        O  0.44657675  0.91878268  0.87073208    -0.86200
O736        O  0.43619754  0.87842046  0.79433805    -0.85900
O737        O  0.37928735  0.88807290  0.87610596    -0.72600
O738        O  0.37243459  0.85305596  0.80701086    -0.84800
Zr739      Zr  0.40188571  0.81743998  0.92187747     2.26400
Zr740      Zr  0.41511296  0.89863969  0.93720275     2.06300
Zr741      Zr  0.39724588  0.82458110  0.79351271     2.10000
Zr742      Zr  0.47216475  0.89213384  0.85403291     1.78800
O743        O  0.35356676  0.77644891  0.76495864    -0.93600
O744        O  0.51139743  0.94021052  0.89049410    -0.41400
O745        O  0.43334258  0.83760108  0.85412999    -0.78000
O746        O  0.44223478  0.87209366  0.92440495    -0.96700
O747        O  0.37640041  0.84498977  0.93510246    -0.90000
O748        O  0.36622055  0.80480275  0.86065454    -0.92800
C749        C  0.48562724  0.94653053  0.76507980     1.00900
C750        C  0.39764159  0.86760602  0.70993194     1.13800
C751        C  0.42941702  0.96329080  0.89260332     1.04600
O752        O  0.46555427  0.93017473  0.97206261    -0.95000
O753        O  0.39004941  0.86692096  0.00235000    -0.90700
O754        O  0.40612404  0.83300305  0.00290380    -0.83900
C755        C  0.39657452  0.84903803  0.02342005     1.11300
O756        O  0.30772002  0.84697502  0.83664489    -0.97000
Zr757      Zr  0.34146181  0.83317453  0.87456866     1.88900
O758        O  0.35125989  0.77663524  0.95047011    -0.73600
O759        O  0.40798888  0.92334956  0.00436072    -0.52900
O760        O  0.31293530  0.84595671  0.92812323    -0.97600
O761        O  0.30312350  0.79225310  0.82540508    -0.54800
O762        O  0.31710462  0.79039827  0.93000864    -0.74100
C763        C  0.32429928  0.77287636  0.95180939     0.98200
O764        O  0.42494721  0.79405919  0.96671826    -0.63000
O765        O  0.42553085  0.82435756  0.72612827    -0.57800
O766        O  0.41011363  0.77793200  0.88478510    -0.94400
O767        O  0.41013642  0.78542764  0.80776636    -0.92900
O768        O  0.49825621  0.87375971  0.80515549    -0.93200
O769        O  0.50671346  0.88080225  0.89552192    -0.92000
C770        C  0.41340762  0.77187583  0.84263901     1.17100
H771        H  0.44687107  0.88340413  0.76529415     0.33000
H772        H  0.45574675  0.87549418  0.94993831     0.43800
H773        H  0.35192652  0.78271452  0.85833261     0.37400
H774        H  0.36827323  0.89872353  0.87993938     0.33900
H775        H  0.53026624  0.94655861  0.87264151     0.25600
H776        H  0.38852331  0.92270151  0.99911040     0.31600
H777        H  0.29157099  0.82818559  0.92627593     0.37500
H778        H  0.50312931  0.88594165  0.77645425     0.31900
H779        H  0.44678069  0.83301105  0.73713638     0.30800
H780        H  0.35274609  0.77997159  0.73165451     0.32500
H781        H  0.29942808  0.77265692  0.83906868     0.31500
H782        H  0.51557821  0.89599421  0.92101713     0.35500
H783        H  0.44125312  0.81115490  0.98524002     0.28200
H784        H  0.39385663  0.94199695  0.75425478     0.32400
H785        H  0.32035050  0.86973432  0.83249909     0.35300
H786        H  0.41788104  0.80222041  0.71983810     0.27900
H787        H  0.40902985  0.78057568  0.98928622     0.40800
H788        H  0.46315132  0.92191401  0.00363919     0.30800
H789        H  0.50601537  0.95586743  0.88261079     0.38400
H790        H  0.31399454  0.79426719  0.79622483     0.30300
H791        H  0.42415601  0.94557623  0.00284843     0.30400
H792        H  0.37839192  0.93813386  0.80232690     0.30600
C793        C  0.38859326  0.83545644  0.63969580    -0.21700
C794        C  0.40700675  0.86327780  0.66389635    -0.09800
C795        C  0.43642219  0.88454797  0.64706175     0.29100
C796        C  0.44664478  0.87867795  0.60614246    -0.21700
C797        C  0.42779346  0.85153900  0.58091897    -0.09800
C798        C  0.39881691  0.82953126  0.59859020     0.29100
F799        F  0.37965996  0.80310600  0.57508496    -0.20300
H800        H  0.36615976  0.81827767  0.65255095     0.17500
H801        H  0.46909684  0.89594184  0.59341508     0.17500
F802        F  0.45581608  0.91062945  0.67073163    -0.20300
C803        C  0.39015293  0.82414092  0.14662125    -0.21700
C804        C  0.39200688  0.84966966  0.16994499    -0.09800
C805        C  0.39180030  0.87301901  0.14451322     0.29100
C806        C  0.39219479  0.87194995  0.09669681    -0.21700
C807        C  0.39294521  0.84772276  0.07358528    -0.09800
C808        C  0.39082946  0.82323736  0.09898847     0.29100
F809        F  0.38998373  0.79872889  0.07806927    -0.20300
H810        H  0.38981116  0.80536861  0.16511529     0.17500
H811        H  0.39301208  0.89080503  0.07792476     0.17500
F812        F  0.39207137  0.89718807  0.16559417    -0.20300
C813        C  0.51589774  0.00147318  0.66051053    -0.21700
C814        C  0.54775942  0.01638486  0.66582932    -0.09800
C815        C  0.55898986  0.00585411  0.70136290     0.29100
C816        C  0.53894645  0.98236895  0.73204562    -0.21700
C817        C  0.50704974  0.96918530  0.72918141    -0.09800
C818        C  0.49583514  0.97873561  0.69201439     0.29100
F819        F  0.46537251  0.96713961  0.68689475    -0.20300
H820        H  0.50644361  0.00945480  0.63448745     0.17500
H821        H  0.54857272  0.97573675  0.75965153     0.17500
F822        F  0.58963095  0.01982246  0.70830121    -0.20300
C823        C  0.49928164  0.00779077  0.41002739    -0.21700
C824        C  0.46726966  0.99122620  0.41353077    -0.09800
C825        C  0.45372542  0.00232062  0.44426514     0.29100
C826        C  0.47184768  0.02787721  0.47319692    -0.21700
C827        C  0.50395624  0.04261768  0.47304694    -0.09800
C828        C  0.51747014  0.03287482  0.43953717     0.29100
F829        F  0.54834066  0.04636160  0.43665538    -0.20300
H830        H  0.51037426  0.99940542  0.38756821     0.17500
H831        H  0.46060371  0.03478623  0.49784521     0.17500
F832        F  0.42281050  0.98691993  0.44871932    -0.20300
C833        C  0.61437243  0.17324434  0.84621068    -0.21700
C834        C  0.58625514  0.15168531  0.82600405    -0.09800
C835        C  0.56561751  0.12473896  0.85058550     0.29100
C836        C  0.57315055  0.11948488  0.89416020    -0.21700
C837        C  0.60132232  0.14079143  0.91435210    -0.09800
C838        C  0.62199069  0.16784078  0.88991156     0.29100
F839        F  0.64963099  0.18896070  0.90802476    -0.20300
H840        H  0.63100456  0.19365601  0.82742661     0.17500
H841        H  0.55636500  0.09912779  0.91272852     0.17500
F842        F  0.53811650  0.10324050  0.83241579    -0.20300
C843        C  0.56858323  0.13318713  0.35426431    -0.21700
C844        C  0.58785720  0.15941965  0.32767290    -0.09800
C845        C  0.61441504  0.18407645  0.34794034     0.29100
C846        C  0.62268676  0.18101327  0.39271830    -0.21700
C847        C  0.60462896  0.15338081  0.41755688    -0.09800
C848        C  0.57676337  0.13016584  0.39851798     0.29100
F849        F  0.55697208  0.10461244  0.42283618    -0.20300
H850        H  0.54759344  0.11415198  0.33993942     0.17500
H851        H  0.64355263  0.19990047  0.40751269     0.17500
F852        F  0.63327120  0.21016641  0.32371621    -0.20300
C853        C  0.51660577  0.98196042  0.15169699    -0.21700
C854        C  0.54698077  0.00537591  0.16085268    -0.09800
C855        C  0.56211222  0.00095713  0.19800126     0.29100
C856        C  0.54616444  0.97583044  0.22837015    -0.21700
C857        C  0.51468591  0.95464181  0.22264104    -0.09800
C858        C  0.50058513  0.95684140  0.18211557     0.29100
F859        F  0.47066943  0.93574853  0.17334153    -0.20300
H860        H  0.50423948  0.98477245  0.12378450     0.17500
H861        H  0.55783130  0.97459526  0.25860640     0.17500
F862        F  0.59153380  0.02299024  0.20796053    -0.20300
C863        C  0.48091665  0.00884437  0.91149442    -0.21700
C864        C  0.44901100  0.99381927  0.91595605    -0.09800
C865        C  0.43704487  0.00390991  0.95114822     0.29100
C866        C  0.45662946  0.02767050  0.98182475    -0.21700
C867        C  0.48853828  0.04108220  0.97933950    -0.09800
C868        C  0.50042181  0.03165276  0.94311782     0.29100
F869        F  0.53099237  0.04348685  0.93919675    -0.20300
H870        H  0.49083553  0.00110807  0.88575371     0.17500
H871        H  0.44672692  0.03429546  0.00914906     0.17500
F872        F  0.40632302  0.98963329  0.95744452    -0.20300
C873        C  0.72465096  0.27996057  0.72313208    -0.21700
C874        C  0.69438409  0.27353722  0.72444019    -0.09800
C875        C  0.68884153  0.29480318  0.74775999     0.29100
C876        C  0.71290681  0.32082682  0.77069437    -0.21700
C877        C  0.74271435  0.32588942  0.77103789    -0.09800
C878        C  0.74828602  0.30546103  0.74591152     0.29100
F879        F  0.77684464  0.30992346  0.74355598    -0.20300
H880        H  0.73028160  0.26480873  0.70500966     0.17500
H881        H  0.70801384  0.33629602  0.78952315     0.17500
F882        F  0.66026932  0.29028447  0.74918639    -0.20300
C883        C  0.74177212  0.27415872  0.28010077    -0.21700
C884        C  0.74512302  0.30340493  0.28594715    -0.09800
C885        C  0.72307964  0.30863386  0.26572104     0.29100
C886        C  0.69861777  0.28505735  0.24010901    -0.21700
C887        C  0.69596768  0.25611495  0.23345952    -0.09800
C888        C  0.71781490  0.25097315  0.25427541     0.29100
F889        F  0.71602259  0.22328110  0.25022929    -0.20300
H890        H  0.75811089  0.26913250  0.29504453     0.17500
H891        H  0.68209996  0.28966159  0.22472059     0.17500
F892        F  0.72502713  0.33635422  0.27059439    -0.20300
C893        C  0.83375189  0.38089377  0.62878501    -0.21700
C894        C  0.85966814  0.40052552  0.60209024    -0.09800
C895        C  0.87990262  0.43096192  0.61727715     0.29100
C896        C  0.87454597  0.44146364  0.65830875    -0.21700
C897        C  0.84880096  0.42206942  0.68526539    -0.09800
C898        C  0.82841288  0.39142595  0.67033168     0.29100
F899        F  0.80386085  0.37145904  0.69616224    -0.20300
H900        H  0.81749820  0.35753470  0.61719897     0.17500
H901        H  0.89071013  0.46507571  0.66894853     0.17500
F902        F  0.90379450  0.45144044  0.59094652    -0.20300
C903        C  0.83495521  0.37983112  0.16296631    -0.21700
C904        C  0.85841639  0.40620449  0.18512964    -0.09800
C905        C  0.88396804  0.42825700  0.15997154     0.29100
C906        C  0.88549539  0.42451586  0.11299836    -0.21700
C907        C  0.86180841  0.39870412  0.09027930    -0.09800
C908        C  0.83658078  0.37601860  0.11563911     0.29100
F909        F  0.81342721  0.35056104  0.09457305    -0.20300
H910        H  0.81575423  0.36203774  0.18240694     0.17500
H911        H  0.90435485  0.44285037  0.09391045     0.17500
F912        F  0.90718382  0.45384227  0.18075408    -0.20300
C913        C  0.27257460  0.71752788  0.53144089    -0.21700
C914        C  0.26977738  0.68834075  0.53475796    -0.09800
C915        C  0.29331298  0.68500360  0.51548410     0.29100
C916        C  0.31884010  0.71039711  0.49398562    -0.21700
C917        C  0.32093294  0.73925071  0.49002402    -0.09800
C918        C  0.29729645  0.74232053  0.50912397     0.29100
F919        F  0.29780997  0.76943374  0.50612234    -0.20300
H920        H  0.25511495  0.72129090  0.54540352     0.17500
H921        H  0.33640894  0.70718569  0.47901969     0.17500
F922        F  0.29156095  0.65726696  0.51671289    -0.20300
C923        C  0.03986660  0.50459044  0.81711880    -0.21700
C924        C  0.04233266  0.48889805  0.77860343    -0.09800
C925        C  0.02017779  0.45721102  0.77343007     0.29100
C926        C  0.99464615  0.44290193  0.80308984    -0.21700
C927        C  0.99096469  0.45956698  0.83906515    -0.09800
C928        C  0.01465308  0.49023699  0.84696493     0.29100
F929        F  0.01156777  0.50760531  0.87979127    -0.20300
H930        H  0.05664675  0.52886238  0.82249974     0.17500
H931        H  0.97628071  0.41948066  0.79540306     0.17500
F932        F  0.02147973  0.44088604  0.73728864    -0.20300
C933        C  0.98443201  0.53634289  0.52667160    -0.21700
C934        C  0.96816682  0.50411223  0.53345072    -0.09800
C935        C  0.97540982  0.49225061  0.57222120     0.29100
C936        C  0.99939708  0.51197525  0.60156940    -0.21700
C937        C  0.01760501  0.54365960  0.59198685    -0.09800
C938        C  0.00923132  0.55591473  0.55514553     0.29100
F939        F  0.02680163  0.58641739  0.54412872    -0.20300
H940        H  0.97943410  0.54620811  0.49738900     0.17500
H941        H  0.00589061  0.50185437  0.62873311     0.17500
F942        F  0.96073751  0.46130797  0.58038935    -0.20300
C943        C  0.25056076  0.72283841  0.02076375    -0.21700
C944        C  0.25217180  0.69673339  0.03293292    -0.09800
C945        C  0.27830397  0.69612484  0.01881101     0.29100
C946        C  0.30174421  0.72086359  0.99303504    -0.21700
C947        C  0.29973021  0.74674154  0.98028123    -0.09800
C948        C  0.27378164  0.74738198  0.99524135     0.29100
F949        F  0.27100175  0.77218594  0.98638740    -0.20300
H950        H  0.23105912  0.72441946  0.03112340     0.17500
H951        H  0.32145222  0.71963563  0.98276569     0.17500
F952        F  0.28166746  0.67209601  0.03079326    -0.20300
C953        C  0.00731185  0.48197209  0.36064834    -0.21700
C954        C  0.99330182  0.44973617  0.35568549    -0.09800
C955        C  0.00339977  0.43839946  0.31964350     0.29100
C956        C  0.02478954  0.45863618  0.28711985    -0.21700
C957        C  0.03665949  0.49073684  0.28942187    -0.09800
C958        C  0.02868241  0.50227251  0.32808422     0.29100
F959        F  0.04081176  0.53318854  0.33401482    -0.20300
H960        H  0.99992990  0.49144306  0.38767922     0.17500
H961        H  0.03095417  0.44893027  0.25886112     0.17500
F962        F  0.99106791  0.40741448  0.31417072    -0.20300
C963        C  0.17553212  0.62346235  0.86646144    -0.21700
C964        C  0.14717179  0.61035962  0.84329484    -0.09800
C965        C  0.12000593  0.59590392  0.86870456     0.29100
C966        C  0.12113850  0.59153858  0.91553136    -0.21700
C967        C  0.14933223  0.60227040  0.93810405    -0.09800
C968        C  0.17665120  0.61920363  0.91353612     0.29100
F969        F  0.20421315  0.63147646  0.93474527    -0.20300
H970        H  0.19691470  0.63541318  0.84760525     0.17500
H971        H  0.09966718  0.57895012  0.93406045     0.17500
F972        F  0.09229490  0.58399703  0.84809879    -0.20300
C973        C  0.16631598  0.61711107  0.37288535    -0.21700
C974        C  0.14090372  0.59499914  0.34747831    -0.09800
C975        C  0.12372433  0.56434443  0.36352532     0.29100
C976        C  0.13099339  0.55641913  0.40533787    -0.21700
C977        C  0.15544015  0.57886094  0.43197328    -0.09800
C978        C  0.17344295  0.60924296  0.41509962     0.29100
F979        F  0.19639514  0.63182610  0.44083515    -0.20300
H980        H  0.18019766  0.64069381  0.36052002     0.17500
H981        H  0.11675547  0.53288296  0.41778658     0.17500
F982        F  0.10042126  0.54181320  0.33834386    -0.20300
C983        C  0.97767605  0.55027893  0.03321655    -0.21700
C984        C  0.96285235  0.51775580  0.03273458    -0.09800
C985        C  0.97068865  0.50350210  0.06759551     0.29100
C986        C  0.99279888  0.52128339  0.10111410    -0.21700
C987        C  0.00908927  0.55376698  0.09957205    -0.09800
C988        C  0.00097355  0.56809899  0.06532885     0.29100
F989        F  0.01690021  0.59944239  0.06100817    -0.20300
H990        H  0.97254354  0.56207786  0.00693962     0.17500
H991        H  0.99920938  0.50957079  0.12573223     0.17500
F992        F  0.95823259  0.47234524  0.06820876    -0.20300
C993        C  0.45005183  0.73235907  0.78145428    -0.21700
C994        C  0.43715412  0.70348051  0.80357401    -0.09800
C995        C  0.41718641  0.69777195  0.84108210     0.29100
C996        C  0.41043717  0.72038539  0.85544789    -0.21700
C997        C  0.42262049  0.74874539  0.83191268    -0.09800
C998        C  0.44269316  0.75438537  0.79485175     0.29100
F999        F  0.45525409  0.78139413  0.77105293    -0.20300
H1000       H  0.46528412  0.73769603  0.75242725     0.17500
H1001       H  0.39476641  0.71522673  0.88381922     0.17500
F1002       F  0.40387660  0.67026591  0.86361106    -0.20300
C1003       C  0.28667841  0.59034130  0.71326254    -0.21700
C1004       C  0.27926498  0.59613776  0.66928531    -0.09800
C1005       C  0.30059701  0.60391989  0.63350419     0.29100
C1006       C  0.32792258  0.60453717  0.64115140    -0.21700
C1007       C  0.33501215  0.59785715  0.68473592    -0.09800
C1008       C  0.31416208  0.59121649  0.72107250     0.29100
F1009       F  0.31992848  0.58509580  0.76407283    -0.20300
H1010       H  0.27090859  0.58457638  0.74168660     0.17500
H1011       H  0.34370180  0.61052652  0.61269985     0.17500
F1012       F  0.29542257  0.61156375  0.59120260    -0.20300
C1013       C  0.42535949  0.68483830  0.36371373    -0.21700
C1014       C  0.41226344  0.66978028  0.32185531    -0.09800
C1015       C  0.39768463  0.68084690  0.29404492     0.29100
C1016       C  0.39747570  0.70742734  0.30662711    -0.21700
C1017       C  0.41146669  0.72347544  0.34764874    -0.09800
C1018       C  0.42456282  0.71123702  0.37701536     0.29100
F1019       F  0.43787768  0.72552118  0.41730317    -0.20300
H1020       H  0.43685415  0.67663983  0.38547162     0.17500
H1021       H  0.38685640  0.71585559  0.28345098     0.17500
F1022       F  0.38513296  0.66688935  0.25323076    -0.20300
C1023       C  0.30489390  0.58715147  0.14711733    -0.21700
C1024       C  0.31119525  0.58033677  0.19132948    -0.09800
C1025       C  0.29099077  0.57669442  0.22732445     0.29100
C1026       C  0.26544290  0.57949277  0.21896221    -0.21700
C1027       C  0.25909691  0.58616344  0.17468493    -0.09800
C1028       C  0.27936188  0.59004282  0.13882859     0.29100
F1029       F  0.27497739  0.59727130  0.09575024    -0.20300
H1030       H  0.31989989  0.59044096  0.11856745     0.17500
H1031       H  0.25051534  0.57636542  0.24757239     0.17500
F1032       F  0.29578036  0.57052572  0.27088185    -0.20300
C1033       C  0.47741744  0.61433322  0.94562434    -0.21700
C1034       C  0.45101718  0.59598294  0.91877600    -0.09800
C1035       C  0.42598887  0.56948112  0.93826825     0.29100
C1036       C  0.42649317  0.56296503  0.98459912    -0.21700
C1037       C  0.45206346  0.58238551  0.01197197    -0.09800
C1038       C  0.47799782  0.60751783  0.99201978     0.29100
F1039       F  0.50293194  0.62653979  0.01798946    -0.20300
H1040       H  0.49735948  0.63437828  0.93096401     0.17500
H1041       H  0.40640766  0.54325944  0.99967598     0.17500
F1042       F  0.40116731  0.54973644  0.91259685    -0.20300
C1043       C  0.43402518  0.55541645  0.45326479    -0.21700
C1044       C  0.42616629  0.57343949  0.42657352    -0.09800
C1045       C  0.43512496  0.60347376  0.44193690     0.29100
C1046       C  0.45121787  0.61478295  0.48338873    -0.21700
C1047       C  0.45948085  0.59681885  0.50953824    -0.09800
C1048       C  0.45078583  0.56700103  0.49376418     0.29100
F1049       F  0.45747095  0.54843020  0.51816571    -0.20300
H1050       H  0.42782373  0.53236425  0.44215315     0.17500
H1051       H  0.45740827  0.63773761  0.49497174     0.17500
F1052       F  0.42962875  0.62242403  0.41611786    -0.20300
C1053       C  0.55564838  0.27981027  0.02972381    -0.21700
C1054       C  0.57105536  0.30941503  0.05032605    -0.09800
C1055       C  0.59326622  0.31545135  0.08432026     0.29100
C1056       C  0.59988242  0.29255397  0.09664174    -0.21700
C1057       C  0.58512002  0.26346414  0.07468895    -0.09800
C1058       C  0.56272148  0.25731173  0.04129255     0.29100
F1059       F  0.54718726  0.22921524  0.02019947    -0.20300
H1060       H  0.53843275  0.27414520  0.00358213     0.17500
H1061       H  0.61707278  0.29781038  0.12266141     0.17500
F1062       F  0.60860497  0.34339667  0.10579043    -0.20300
C1063       C  0.69030607  0.41315054  0.97573048    -0.21700
C1064       C  0.67532100  0.41780666  0.93886190    -0.09800
C1065       C  0.68907515  0.42371493  0.89493999     0.29100
C1066       C  0.71645509  0.42429572  0.88824658    -0.21700
C1067       C  0.73121356  0.41906859  0.92478401    -0.09800
C1068       C  0.71782252  0.41369849  0.96895934     0.29100
F1069       F  0.73096918  0.40862291  0.00571408    -0.20300
H1070       H  0.68047558  0.40856957  0.00990746     0.17500
H1071       H  0.72602944  0.42877716  0.85390375     0.17500
F1072       F  0.67628642  0.42911016  0.85801526    -0.20300
C1073       C  0.56175344  0.54673643  0.83858396    -0.21700
C1074       C  0.54466712  0.51471275  0.82962307    -0.09800
C1075       C  0.52705977  0.50471500  0.78868228     0.29100
C1076       C  0.52676039  0.52615333  0.75811394    -0.21700
C1077       C  0.54250158  0.55800762  0.76847738    -0.09800
C1078       C  0.56023491  0.56798181  0.80920935     0.29100
F1079       F  0.57515133  0.59825378  0.82197534    -0.20300
H1080       H  0.57525830  0.55534585  0.86972871     0.17500
H1081       H  0.51221559  0.51746201  0.72797545     0.17500
F1082       F  0.50880426  0.47410987  0.77893272    -0.20300
C1083       C  0.45702063  0.49036901  0.03726179    -0.21700
C1084       C  0.43708712  0.47481641  0.07451626    -0.09800
C1085       C  0.42204005  0.44225483  0.07559500     0.29100
C1086       C  0.42917253  0.42626627  0.04294699    -0.21700
C1087       C  0.45100755  0.44215325  0.00784342    -0.09800
C1088       C  0.46366645  0.47431544  0.00412200     0.29100
F1089       F  0.48487512  0.49074430  0.97128512    -0.20300
H1090       H  0.46854422  0.51537926  0.03475355     0.17500
H1091       H  0.41910034  0.40149806  0.04702775     0.17500
F1092       F  0.40240199  0.42606116  0.11028394    -0.20300
C1093       C  0.57645784  0.30695260  0.60032835    -0.21700
C1094       C  0.60054956  0.33272391  0.57782796    -0.09800
C1095       C  0.62709065  0.33226530  0.56626746     0.29100
C1096       C  0.62842299  0.30558936  0.57457789    -0.21700
C1097       C  0.60365791  0.27944441  0.59541517    -0.09800
C1098       C  0.57795734  0.28063464  0.60907339     0.29100
F1099       F  0.55324425  0.25538723  0.62775480    -0.20300
H1100       H  0.55568911  0.30659576  0.60922161     0.17500
H1101       H  0.64847171  0.30508545  0.56393306     0.17500
F1102       F  0.65068999  0.35657019  0.54396850    -0.20300
C1103       C  0.70044174  0.41387736  0.39457918    -0.21700
C1104       C  0.69511060  0.42119071  0.43915407    -0.09800
C1105       C  0.71607629  0.42588045  0.47423547     0.29100
C1106       C  0.74129823  0.42302098  0.46489047    -0.21700
C1107       C  0.74621461  0.41499140  0.42066393    -0.09800
C1108       C  0.72563198  0.41080421  0.38533245     0.29100
F1109       F  0.72913927  0.40271767  0.34222589    -0.20300
H1110       H  0.68480529  0.41001364  0.36670258     0.17500
H1111       H  0.75685004  0.42671944  0.49283385     0.17500
F1112       F  0.71207844  0.43262305  0.51794352    -0.20300
C1113       C  0.57181658  0.44840283  0.69849775    -0.21700
C1114       C  0.58594302  0.43361858  0.67849830    -0.09800
C1115       C  0.58405135  0.40814041  0.70143416     0.29100
C1116       C  0.56743457  0.39737304  0.74258713    -0.21700
C1117       C  0.55217967  0.41153380  0.76123281    -0.09800
C1118       C  0.55488219  0.43733171  0.73866564     0.29100
F1119       F  0.54156663  0.45242276  0.75559619    -0.20300
H1120       H  0.57278926  0.46813143  0.68208442     0.17500
H1121       H  0.56636666  0.37781095  0.75967760     0.17500
F1122       F  0.59738660  0.39310186  0.68369957    -0.20300
C1123       C  0.52832705  0.40616375  0.19648230    -0.21700
C1124       C  0.54811206  0.39908614  0.17286628    -0.09800
C1125       C  0.56353108  0.38758297  0.19756843     0.29100
C1126       C  0.56083794  0.38540482  0.24528891    -0.21700
C1127       C  0.54337896  0.39540727  0.26926115    -0.09800
C1128       C  0.52600514  0.40446183  0.24414225     0.29100
F1129       F  0.50856738  0.41386829  0.26543602    -0.20300
H1130       H  0.51560904  0.41458475  0.17827433     0.17500
H1131       H  0.57398731  0.37755173  0.26365510     0.17500
F1132       F  0.58166977  0.37915151  0.17596488    -0.20300
C1133       C  0.53688411  0.49711003  0.29041677    -0.21700
C1134       C  0.55523067  0.51352264  0.32872669    -0.09800
C1135       C  0.56484978  0.54512042  0.33290419     0.29100
C1136       C  0.55361581  0.55863720  0.30242642    -0.21700
C1137       C  0.53310362  0.54128346  0.26652137    -0.09800
C1138       C  0.52630617  0.51084849  0.25943162     0.29100
F1139       F  0.50626653  0.49311230  0.22595593    -0.20300
H1140       H  0.52936356  0.47290478  0.28568560     0.17500
H1141       H  0.55866514  0.58192037  0.30952070     0.17500
F1142       F  0.58253592  0.56210329  0.36894315    -0.20300
C1143       C  0.49564284  0.49416570  0.51728508    -0.21700
C1144       C  0.48167716  0.46237587  0.52582739    -0.09800
C1145       C  0.46112406  0.44971645  0.56326493     0.29100
C1146       C  0.45569053  0.46873772  0.59224635    -0.21700
C1147       C  0.47151972  0.50101343  0.58576344    -0.09800
C1148       C  0.49142937  0.51339375  0.54733933     0.29100
F1149       F  0.50830194  0.54442339  0.53978100    -0.20300
H1150       H  0.51249748  0.50475672  0.49010165     0.17500
H1151       H  0.44049808  0.45841326  0.62138864     0.17500
F1152       F  0.44807838  0.41922719  0.57388403    -0.20300
loop_ 
_geom_bond_atom_site_label_1 
_geom_bond_atom_site_label_2 
_geom_bond_distance 
_geom_bond_site_symmetry_2 
_ccdc_geom_bond_type 
Zr1           O2   2.436       .  S
Zr1           O3   2.447       .  S
Zr1           O4   2.451       .  S
Zr1           O7   2.438       .  S
Zr1           O9   2.380       .  S
Zr1          O10   2.375       .  S
Zr1          O11   2.432       .  S
Zr1          O12   2.426       .  S
O2           H58   0.990       .  S
O2           H66   0.990       .  S
O3           C23   1.287       .  A
O4           C25   1.282       .  A
O5          Zr15   2.423       .  S
O5           C24   1.283       .  A
O6          Zr14   2.404       .  S
O6           C25   1.271       .  A
O7           C24   1.287       .  A
O8          Zr16   2.421       .  S
O8           C23   1.283       .  A
O9          Zr14   2.377       .  S
O9          Zr16   2.365       .  S
O10         Zr15   2.355       .  S
O10         Zr16   2.373       .  S
O10          H45   0.965       .  S
O11         Zr14   2.396       .  S
O11         Zr31   2.421       .  S
O11          H48   0.966       .  S
O12         Zr15   2.375       .  S
O12         Zr31   2.427       .  S
Zr13         O38   2.437       .  S
Zr13         O32   2.422       .  S
Zr13         O40   2.464       .  S
Zr13         O28   2.507       .  S
Zr13         O19   2.416       .  S
Zr13         O20   2.401       .  S
Zr13         O21   2.380       .  S
Zr13         O22   2.392       .  S
Zr14         O33   2.439       .  S
Zr14         O26   2.437       .  S
Zr14         O27   2.387       .  S
Zr14         O20   2.402       .  S
Zr14         O21   2.392       .  S
Zr15         O17   2.434       .  S
Zr15         O39   2.441       .  S
Zr15         O41   2.366       .  S
Zr15         O19   2.397       .  S
Zr15         O22   2.388       .  S
Zr16         O42   2.437       .  S
Zr16         O43   2.435       .  S
Zr16         O18   2.437       .  S
Zr16         O19   2.386       .  S
Zr16         O20   2.387       .  S
O17          H54   0.989       .  S
O18          H49   0.990       .  S
O18          H63   0.990       .  S
O20          H46   0.965       .  S
O21         Zr31   2.363       .  S
O22         Zr31   2.354       .  S
O22          H47   0.965       .  S
C23        C1094   1.480       .  S
C24        C1104   1.491       .  S
C25        C1114   1.482       .  S
O26          H62   0.990       .  S
O27          C29   1.270       .  A
O28          C29   1.298       .  A
C29        C1144   1.485       .  S
O30         Zr31   2.435       .  S
O30          H59   0.991       .  S
Zr31         O34   2.434       .  S
Zr31         O35   2.438       .  S
Zr31         O36   2.503       .  S
O32          C37   1.284       .  A
O33          H50   0.989       .  S
O33          H65   0.990       .  S
O34          H51   0.990       .  S
O35          H55   0.990       .  S
O35          H64   0.990       .  S
O36          C37   1.297       .  A
C37        C1134   1.506       .  S
O38          H57   0.990       .  S
O38          H61   0.990       .  S
O39          H53   0.990       .  S
O39          H60   0.990       .  S
O40          C44   1.293       .  A
O41          C44   1.274       .  A
O42          H52   0.990       .  S
O43          H56   0.990       .  S
C44        C1127   1.475       .  S
Zr67         O68   2.438       .  S
Zr67         O69   2.457       .  S
Zr67         O70   2.459       .  S
Zr67         O73   2.454   1_554  S
Zr67         O75   2.375       .  S
Zr67         O76   2.380   1_554  S
Zr67         O77   2.430       .  S
Zr67         O78   2.415   1_554  S
O68         H124   0.990       .  S
O68         H132   0.990       .  S
O69          C89   1.289       .  A
O70          C91   1.290       .  A
O71         Zr81   2.431       .  S
O71          C90   1.284       .  A
O72         Zr80   2.365       .  S
O72          C91   1.272       .  A
O73          C90   1.290       .  A
O74         Zr82   2.451   1_554  S
O74          C89   1.289       .  A
O75         Zr80   2.381       .  S
O75         Zr82   2.354   1_554  S
O76         Zr81   2.371       .  S
O76         Zr82   2.378       .  S
O76         H111   0.966       .  S
O77         Zr80   2.397       .  S
O77         Zr97   2.430   1_554  S
O77         H114   0.966       .  S
O78         Zr81   2.387       .  S
O78         Zr97   2.416       .  S
Zr79        O104   2.432       .  S
Zr79         O98   2.429       .  S
Zr79        O106   2.444       .  S
Zr79         O94   2.510       .  S
Zr79         O85   2.432       .  S
Zr79         O86   2.413       .  S
Zr79         O87   2.377       .  S
Zr79         O88   2.409       .  S
Zr80         O99   2.435       .  S
Zr80         O92   2.436       .  S
Zr80         O93   2.395       .  S
Zr80         O86   2.391   1_554  S
Zr80         O87   2.382   1_554  S
Zr81         O83   2.438       .  S
Zr81        O105   2.437       .  S
Zr81        O107   2.395       .  S
Zr81         O85   2.397       .  S
Zr81         O88   2.391       .  S
Zr82        O108   2.437       .  S
Zr82        O109   2.437       .  S
Zr82         O84   2.439   1_556  S
Zr82         O85   2.395       .  S
Zr82         O86   2.410       .  S
O83         H120   0.990       .  S
O84         H115   0.990       .  S
O84         H129   0.990       .  S
O86         H112   0.966       .  S
O87         Zr97   2.373       .  S
O88         Zr97   2.357       .  S
O88         H113   0.965       .  S
C89        C1054   1.503       .  S
C90        C1064   1.498       .  S
C91        C1124   1.472       .  S
O92         H128   0.991       .  S
O93          C95   1.267   1_554  A
O94          C95   1.295       .  A
C95        C1087   1.499   1_556  S
O96         Zr97   2.436       .  S
O96         H125   0.990       .  S
Zr97        O100   2.435       .  S
Zr97        O101   2.439       .  S
Zr97        O102   2.490       .  S
O98         C103   1.285       .  A
O99         H116   0.990       .  S
O99         H131   0.990       .  S
O100        H117   0.991       .  S
O101        H121   0.990       .  S
O101        H130   0.990       .  S
O102        C103   1.296       .  A
C103       C1074   1.506       .  S
O104        H123   0.990       .  S
O104        H127   0.990       .  S
O105        H119   0.990       .  S
O105        H126   0.990       .  S
O106        C110   1.284       .  A
O107        C110   1.269       .  A
O108        H118   0.990       .  S
O109        H122   0.990       .  S
C110       C1117   1.482       .  S
Zr133       O134   2.435       .  S
Zr133       O135   2.444       .  S
Zr133       O136   2.456       .  S
Zr133       O139   2.450       .  S
Zr133       O141   2.374       .  S
Zr133       O142   2.379       .  S
Zr133       O143   2.431       .  S
Zr133       O144   2.422       .  S
O134        H190   0.990       .  S
O134        H198   0.990       .  S
O135        C155   1.287       .  A
O136        C157   1.284       .  A
O137       Zr147   2.458       .  S
O137        C156   1.290       .  A
O138       Zr146   2.399       .  S
O138        C157   1.272       .  A
O139        C156   1.289       .  A
O140       Zr148   2.441       .  S
O140        C155   1.285       .  A
O141       Zr146   2.378       .  S
O141       Zr148   2.361       .  S
O142       Zr147   2.366       .  S
O142       Zr148   2.383       .  S
O142        H177   0.966       .  S
O143       Zr146   2.389       .  S
O143       Zr163   2.422       .  S
O143        H180   0.966       .  S
O144       Zr147   2.381       .  S
O144       Zr163   2.432       .  S
Zr145       O170   2.435       .  S
Zr145       O164   2.426       .  S
Zr145       O172   2.451       .  S
Zr145       O160   2.516       .  S
Zr145       O151   2.418       .  S
Zr145       O152   2.393       .  S
Zr145       O153   2.377       .  S
Zr145       O154   2.398       .  S
Zr146       O165   2.437       .  S
Zr146       O158   2.436       .  S
Zr146       O159   2.383       .  S
Zr146       O152   2.393       .  S
Zr146       O153   2.386       .  S
Zr147       O149   2.436       .  S
Zr147       O171   2.437       .  S
Zr147       O173   2.400       .  S
Zr147       O151   2.406       .  S
Zr147       O154   2.389       .  S
Zr148       O174   2.437       .  S
Zr148       O175   2.440       .  S
Zr148       O150   2.440       .  S
Zr148       O151   2.395       .  S
Zr148       O152   2.397       .  S
O149        H186   0.990       .  S
O150        H181   0.990       .  S
O150        H195   0.990       .  S
O152        H178   0.966       .  S
O153       Zr163   2.367       .  S
O154       Zr163   2.348       .  S
O154        H179   0.964       .  S
C155       C1014   1.474       .  S
C156       C1024   1.509       .  S
C157       C1044   1.481       .  S
O158        H194   0.990       .  S
O159        C161   1.275       .  A
O160        C161   1.302       .  A
C161       C1137   1.490       .  S
O162       Zr163   2.435       .  S
O162        H191   0.990       .  S
Zr163       O166   2.438       .  S
Zr163       O167   2.437       .  S
Zr163       O168   2.500       .  S
O164        C169   1.285       .  A
O165        H182   0.990       .  S
O165        H197   0.990       .  S
O166        H183   0.990       .  S
O167        H187   0.990       .  S
O167        H196   0.990       .  S
O168        C169   1.297       .  A
C169       C1084   1.504       .  S
O170        H189   0.990       .  S
O170        H193   0.991       .  S
O171        H185   0.990       .  S
O171        H192   0.990       .  S
O172        C176   1.289       .  A
O173        C176   1.281       .  A
O174        H184   0.990       .  S
O175        H188   0.991       .  S
C176       C1037   1.460       .  S
Zr199       O200   2.437       .  S
Zr199       O201   2.458       .  S
Zr199       O202   2.446       .  S
Zr199       O205   2.429       .  S
Zr199       O207   2.379       .  S
Zr199       O208   2.381       .  S
Zr199       O209   2.425       .  S
Zr199       O210   2.422       .  S
O200        H256   0.991       .  S
O200        H264   0.990       .  S
O201        C221   1.288       .  A
O202        C223   1.283       .  A
O203       Zr213   2.436       .  S
O203        C222   1.286       .  A
O204       Zr212   2.388       .  S
O204        C223   1.269       .  A
O205        C222   1.284       .  A
O206       Zr214   2.455       .  S
O206        C221   1.289       .  A
O207       Zr212   2.390       .  S
O207       Zr214   2.363       .  S
O208       Zr213   2.380       .  S
O208       Zr214   2.373       .  S
O208        H243   0.966       .  S
O209       Zr212   2.406       .  S
O209       Zr229   2.428       .  S
O209        H246   0.966       .  S
O210       Zr213   2.392       .  S
O210       Zr229   2.421       .  S
Zr211       O236   2.434       .  S
Zr211       O230   2.401       .  S
Zr211       O238   2.452       .  S
Zr211       O226   2.505       .  S
Zr211       O217   2.431       .  S
Zr211       O218   2.421       .  S
Zr211       O219   2.365       .  S
Zr211       O220   2.405       .  S
Zr212       O231   2.437       .  S
Zr212       O224   2.435       .  S
Zr212       O225   2.399       .  S
Zr212       O218   2.403       .  S
Zr212       O219   2.381       .  S
Zr213       O215   2.437       .  S
Zr213       O237   2.436       .  S
Zr213       O239   2.409       .  S
Zr213       O217   2.403       .  S
Zr213       O220   2.386       .  S
Zr214       O240   2.438       .  S
Zr214       O241   2.435       .  S
Zr214       O216   2.437       .  S
Zr214       O217   2.397       .  S
Zr214       O218   2.423       .  S
O215        H252   0.990       .  S
O216        H247   0.990       .  S
O216        H261   0.990       .  S
O218        H244   0.966       .  S
O219       Zr229   2.357       .  S
O220       Zr229   2.353       .  S
O220        H245   0.965       .  S
C221        C994   1.507       .  S
C222       C1007   1.492       .  S
C223       C1034   1.471       .  S
O224        H260   0.990       .  S
O225        C227   1.269       .  A
O226        C227   1.293       .  A
C227       C1077   1.503       .  S
O228       Zr229   2.435       .  S
O228        H257   0.990       .  S
Zr229       O232   2.436       .  S
Zr229       O233   2.437       .  S
Zr229       O234   2.504       .  S
O230        C235   1.281       .  A
O231        H248   0.990       .  S
O231        H263   0.990       .  S
O232        H249   0.990       .  S
O233        H253   0.990       .  S
O233        H262   0.989       .  S
O234        C235   1.298       .  A
C235       C1147   1.503       .  S
O236        H255   0.990       .  S
O236        H259   0.990       .  S
O237        H251   0.990       .  S
O237        H258   0.990       .  S
O238        C242   1.285       .  A
O239        C242   1.273       .  A
O240        H250   0.990       .  S
O241        H254   0.990       .  S
C242       C1047   1.481       .  S
Zr265       O266   2.435       .  S
Zr265       O267   2.426       .  S
Zr265       O268   2.503       .  S
Zr265       O271   2.429       .  S
Zr265       O273   2.377       .  S
Zr265       O274   2.411       .  S
Zr265       O275   2.413       .  S
Zr265       O276   2.440       .  S
O266        H322   0.990       .  S
O266        H330   0.990       .  S
O267        C287   1.285       .  A
O268        C289   1.292       .  A
O269       Zr279   2.414       .  S
O269        C288   1.272       .  A
O270       Zr278   2.397       .  S
O270        C289   1.265       .  A
O271        C288   1.280       .  A
O272       Zr280   2.488       .  S
O272        C287   1.295       .  A
O273       Zr278   2.383       .  S
O273       Zr280   2.378       .  S
O274       Zr279   2.384       .  S
O274       Zr280   2.348       .  S
O274        H309   0.964       .  S
O275       Zr278   2.397       .  S
O275       Zr295   2.411       .  S
O275        H312   0.967       .  S
O276       Zr279   2.398       .  S
O276       Zr295   2.385       .  S
Zr277       O302   2.438       .  S
Zr277       O296   2.469       .  S
Zr277       O304   2.473       .  S
Zr277       O292   2.460       .  S
Zr277       O283   2.416       .  S
Zr277       O284   2.435       .  S
Zr277       O285   2.376       .  S
Zr277       O286   2.388       .  S
Zr278       O297   2.446       .  S
Zr278       O290   2.437       .  S
Zr278       O291   2.356       .  S
Zr278       O284   2.399       .  S
Zr278       O285   2.379       .  S
Zr279       O281   2.438       .  S
Zr279       O303   2.437       .  S
Zr279       O305   2.431       .  S
Zr279       O283   2.388       .  S
Zr279       O286   2.384       .  S
Zr280       O306   2.435       .  S
Zr280       O307   2.435       .  S
Zr280       O282   2.436       .  S
Zr280       O283   2.410       .  S
Zr280       O284   2.434       .  S
O281        H318   0.989       .  S
O282        H313   0.990       .  S
O282        H327   0.989       .  S
O284        H310   0.974       .  S
O285       Zr295   2.355       .  S
O286       Zr295   2.379       .  S
O286        H311   0.972       .  S
C287        C957   1.504       .  S
C288        C974   1.468       .  S
C289        C987   1.495       .  S
O290        H326   0.990       .  S
O291        C293   1.269   1_554  A
O292        C293   1.289   1_554  A
C293        C967   1.463       .  S
O294       Zr295   2.433       .  S
O294        H323   0.990       .  S
Zr295       O298   2.436       .  S
Zr295       O299   2.436       .  S
Zr295       O300   2.442       .  S
O296        C301   1.291       .  A
O297        H314   0.991       .  S
O297        H329   0.990       .  S
O298        H315   0.990       .  S
O299        H319   0.990       .  S
O299        H328   0.990       .  S
O300        C301   1.287       .  A
C301        C944   1.507       .  S
O302        H321   0.990       .  S
O302        H325   0.990       .  S
O303        H317   0.990       .  S
O303        H324   0.990       .  S
O304        C308   1.293       .  A
O305        C308   1.285       .  A
O306        H316   0.990       .  S
O307        H320   0.990       .  S
C308       C1027   1.506       .  S
Zr331       O332   2.436       .  S
Zr331       O333   2.406       .  S
Zr331       O334   2.485       .  S
Zr331       O337   2.435       .  S
Zr331       O339   2.375       .  S
Zr331       O340   2.392       .  S
Zr331       O341   2.392       .  S
Zr331       O342   2.410       .  S
O332        H388   0.990       .  S
O332        H396   0.990       .  S
O333        C353   1.281       .  A
O334        C355   1.292       .  A
O335       Zr345   2.371       .  S
O335        C354   1.275       .  A
O336       Zr344   2.384       .  S
O336        C355   1.270       .  A
O337        C354   1.289       .  A
O338       Zr346   2.505       .  S
O338        C353   1.297       .  A
O339       Zr344   2.390       .  S
O339       Zr346   2.374       .  S
O340       Zr345   2.385       .  S
O340       Zr346   2.351       .  S
O340        H375   0.960       .  S
O341       Zr344   2.389       .  S
O341       Zr361   2.395       .  S
O341        H378   0.964       .  S
O342       Zr345   2.398       .  S
O342       Zr361   2.377       .  S
Zr343       O368   2.435       .  S
Zr343       O362   2.470       .  S
Zr343       O370   2.441       .  S
Zr343       O358   2.444       .  S
Zr343       O349   2.423       .  S
Zr343       O350   2.432       .  S
Zr343       O351   2.381       .  S
Zr343       O352   2.373       .  S
Zr344       O363   2.437       .  S
Zr344       O356   2.437       .  S
Zr344       O357   2.391       .  S
Zr344       O350   2.395       .  S
Zr344       O351   2.379       .  S
Zr345       O347   2.434       .  S
Zr345       O369   2.439       .  S
Zr345       O371   2.429       .  S
Zr345       O349   2.370       .  S
Zr345       O352   2.363       .  S
Zr346       O372   2.438       .  S
Zr346       O373   2.440       .  S
Zr346       O348   2.438       .  S
Zr346       O349   2.426       .  S
Zr346       O350   2.425       .  S
O347        H384   0.990       .  S
O348        H379   0.990       .  S
O348        H393   0.990       .  S
O350        H376   0.967       .  S
O351       Zr361   2.372       .  S
O352       Zr361   2.375       .  S
O352        H377   0.969       .  S
C353        C924   1.502       .  S
C354        C964   1.463       .  S
C355        C937   1.476       .  S
O356        H392   0.990       .  S
O357        C359   1.270       .  A
O358        C359   1.283       .  A
C359        C977   1.466       .  S
O360       Zr361   2.436       .  S
O360        H389   0.990       .  S
Zr361       O364   2.435       .  S
Zr361       O365   2.436       .  S
Zr361       O366   2.425       .  S
O362        C367   1.292       .  A
O363        H380   0.990       .  S
O363        H395   0.990       .  S
O364        H381   0.991       .  S
O365        H385   0.990       .  S
O365        H394   0.990       .  S
O366        C367   1.285       .  A
C367        C914   1.502       .  S
O368        H387   0.990       .  S
O368        H391   0.990       .  S
O369        H383   0.990       .  S
O369        H390   0.990       .  S
O370        C374   1.288       .  A
O371        C374   1.284       .  A
O372        H382   0.990       .  S
O373        H386   0.990       .  S
C374       C1004   1.489       .  S
Zr397       O398   2.435       .  S
Zr397       O399   2.403       .  S
Zr397       O400   2.499       .  S
Zr397       O403   2.437       .  S
Zr397       O405   2.371       .  S
Zr397       O406   2.398       .  S
Zr397       O407   2.407       .  S
Zr397       O408   2.423       .  S
O398        H454   0.990       .  S
O398        H462   0.990       .  S
O399        C419   1.281       .  A
O400        C421   1.291       .  A
O401       Zr411   2.411       .  S
O401        C420   1.274       .  A
O402       Zr410   2.394       .  S
O402        C421   1.266       .  A
O403        C420   1.285       .  A
O404       Zr412   2.463       .  S
O404        C419   1.290       .  A
O405       Zr410   2.381       .  S
O405       Zr412   2.368       .  S
O406       Zr411   2.381       .  S
O406       Zr412   2.358       .  S
O406        H441   0.966       .  S
O407       Zr410   2.388       .  S
O407       Zr427   2.407       .  S
O407        H444   0.966       .  S
O408       Zr411   2.396       .  S
O408       Zr427   2.391       .  S
Zr409       O434   2.440       .  S
Zr409       O428   2.439       .  S
Zr409       O436   2.449       .  S
Zr409       O424   2.452       .  S
Zr409       O415   2.405       .  S
Zr409       O416   2.414       .  S
Zr409       O417   2.371       .  S
Zr409       O418   2.386       .  S
Zr410       O429   2.438       .  S
Zr410       O422   2.436       .  S
Zr410       O423   2.366       .  S
Zr410       O416   2.402       .  S
Zr410       O417   2.372       .  S
Zr411       O413   2.438       .  S
Zr411       O435   2.437       .  S
Zr411       O437   2.414       .  S
Zr411       O415   2.387       .  S
Zr411       O418   2.376       .  S
Zr412       O438   2.438       .  S
Zr412       O439   2.438       .  S
Zr412       O414   2.438       .  S
Zr412       O415   2.398       .  S
Zr412       O416   2.419       .  S
O413        H450   0.990       .  S
O414        H445   0.990       .  S
O414        H459   0.990       .  S
O416        H442   0.967       .  S
O417       Zr427   2.358       .  S
O418       Zr427   2.372       .  S
O418        H443   0.966       .  S
C419        C934   1.488       .  S
C420        C894   1.471       .  S
C421        C954   1.492       .  S
O422        H458   0.990       .  S
O423        C425   1.273       .  A
O424        C425   1.288       .  A
C425        C904   1.457       .  S
O426       Zr427   2.436       .  S
O426        H455   0.990       .  S
Zr427       O430   2.435       .  S
Zr427       O431   2.438       .  S
Zr427       O432   2.439       .  S
O428        C433   1.286       .  A
O429        H446   0.990       .  S
O429        H461   0.990       .  S
O430        H447   0.990       .  S
O431        H451   0.990       .  S
O431        H460   0.990       .  S
O432        C433   1.287       .  A
C433        C884   1.493       .  S
O434        H453   0.990       .  S
O434        H457   0.990       .  S
O435        H449   0.990       .  S
O435        H456   0.990       .  S
O436        C440   1.289       .  A
O437        C440   1.283       .  A
O438        H448   0.990       .  S
O439        H452   0.990       .  S
C440       C1107   1.486       .  S
Zr463       O464   2.436       .  S
Zr463       O465   2.424       .  S
Zr463       O466   2.504       .  S
Zr463       O469   2.441   1_556  S
Zr463       O471   2.374       .  S
Zr463       O472   2.396       .  S
Zr463       O473   2.391       .  S
Zr463       O474   2.416       .  S
O464        H520   0.991       .  S
O464        H528   0.990       .  S
O465        C485   1.284       .  A
O466        C487   1.299       .  A
O467       Zr477   2.397   1_554  S
O467        C486   1.278       .  A
O468       Zr476   2.383       .  S
O468        C487   1.274       .  A
O469        C486   1.289       .  A
O470       Zr478   2.496       .  S
O470        C485   1.297       .  A
O471       Zr476   2.385       .  S
O471       Zr478   2.364       .  S
O472       Zr477   2.387       .  S
O472       Zr478   2.355       .  S
O472        H507   0.966       .  S
O473       Zr476   2.392       .  S
O473       Zr493   2.397       .  S
O473        H510   0.966       .  S
O474       Zr477   2.406       .  S
O474       Zr493   2.379       .  S
Zr475       O500   2.435       .  S
Zr475       O494   2.462       .  S
Zr475       O502   2.432       .  S
Zr475       O490   2.445       .  S
Zr475       O481   2.417       .  S
Zr475       O482   2.437       .  S
Zr475       O483   2.371       .  S
Zr475       O484   2.379       .  S
Zr476       O495   2.437       .  S
Zr476       O488   2.439       .  S
Zr476       O489   2.402       .  S
Zr476       O482   2.394       .  S
Zr476       O483   2.373       .  S
Zr477       O479   2.435       .  S
Zr477       O501   2.440   1_556  S
Zr477       O503   2.450       .  S
Zr477       O481   2.373       .  S
Zr477       O484   2.369       .  S
Zr478       O504   2.436       .  S
Zr478       O505   2.437       .  S
Zr478       O480   2.440       .  S
Zr478       O481   2.421       .  S
Zr478       O482   2.426       .  S
O479        H516   0.991   1_556  S
O480        H511   0.990       .  S
O480        H525   0.990       .  S
O482        H508   0.967       .  S
O483       Zr493   2.352       .  S
O484       Zr493   2.382       .  S
O484        H509   0.966       .  S
C485        C984   1.506   1_556  S
C486        C907   1.462       .  S
C487        C927   1.485       .  S
O488        H524   0.989       .  S
O489        C491   1.271       .  A
O490        C491   1.281       .  A
C491        C897   1.476       .  S
O492       Zr493   2.434       .  S
O492        H521   0.990       .  S
Zr493       O496   2.435       .  S
Zr493       O497   2.436       .  S
Zr493       O498   2.421       .  S
O494        C499   1.290       .  A
O495        H512   0.990       .  S
O495        H527   0.990       .  S
O496        H513   0.990       .  S
O497        H517   0.990       .  S
O497        H526   0.990       .  S
O498        C499   1.284       .  A
C499        C877   1.490       .  S
O500        H519   0.990       .  S
O500        H523   0.990       .  S
O501        H515   0.990       .  S
O501        H522   0.990       .  S
O502        C506   1.287       .  A
O503        C506   1.287       .  A
O504        H514   0.990       .  S
O505        H518   0.990       .  S
C506       C1067   1.498       .  S
Zr529       O530   2.438       .  S
Zr529       O531   2.420       .  S
Zr529       O532   2.504       .  S
Zr529       O535   2.440   1_554  S
Zr529       O537   2.375       .  S
Zr529       O538   2.408       .  S
Zr529       O539   2.401       .  S
Zr529       O540   2.424       .  S
O530        H586   0.990       .  S
O530        H594   0.990       .  S
O531        C551   1.284       .  A
O532        C553   1.298       .  A
O533       Zr543   2.408   1_556  S
O533        C552   1.273       .  A
O534       Zr542   2.394       .  S
O534        C553   1.276       .  A
O535        C552   1.284       .  A
O536       Zr544   2.475       .  S
O536        C551   1.293       .  A
O537       Zr542   2.376       .  S
O537       Zr544   2.373       .  S
O538       Zr543   2.395       .  S
O538       Zr544   2.360       .  S
O538        H573   0.965       .  S
O539       Zr542   2.386       .  S
O539       Zr559   2.409       .  S
O539        H576   0.966       .  S
O540       Zr543   2.400       .  S
O540       Zr559   2.388       .  S
Zr541       O566   2.437       .  S
Zr541       O560   2.450       .  S
Zr541       O568   2.464       .  S
Zr541       O556   2.450       .  S
Zr541       O547   2.403       .  S
Zr541       O548   2.424       .  S
Zr541       O549   2.372       .  S
Zr541       O550   2.385       .  S
Zr542       O561   2.441       .  S
Zr542       O554   2.437       .  S
Zr542       O555   2.384       .  S
Zr542       O548   2.385       .  S
Zr542       O549   2.376       .  S
Zr543       O545   2.437       .  S
Zr543       O567   2.437   1_554  S
Zr543       O569   2.442       .  S
Zr543       O547   2.380       .  S
Zr543       O550   2.376       .  S
Zr544       O570   2.434       .  S
Zr544       O571   2.439       .  S
Zr544       O546   2.437       .  S
Zr544       O547   2.401       .  S
Zr544       O548   2.420       .  S
O545        H582   0.990       .  S
O546        H577   0.990       .  S
O546        H591   0.990       .  S
O548        H574   0.966       .  S
O549       Zr559   2.361       .  S
O550       Zr559   2.383       .  S
O550        H575   0.965       .  S
C551        C867   1.499   1_554  S
C552        C837   1.474       .  S
C553        C854   1.490       .  S
O554        H590   0.990       .  S
O555        C557   1.278       .  A
O556        C557   1.287       .  A
C557        C844   1.474       .  S
O558       Zr559   2.441       .  S
O558        H587   0.990       .  S
Zr559       O562   2.438       .  S
Zr559       O563   2.439       .  S
Zr559       O564   2.430       .  S
O560        C565   1.288       .  A
O561        H578   0.990       .  S
O561        H593   0.990       .  S
O562        H579   0.990       .  S
O563        H583   0.990       .  S
O563        H592   0.990       .  S
O564        C565   1.285       .  A
C565        C887   1.491       .  S
O566        H585   0.990       .  S
O566        H589   0.990       .  S
O567        H581   0.990       .  S
O567        H588   0.990       .  S
O568        C572   1.290       .  A
O569        C572   1.287       .  A
O570        H580   0.990       .  S
O571        H584   0.990       .  S
C572       C1057   1.492       .  S
Zr595       O596   2.434       .  S
Zr595       O597   2.408       .  S
Zr595       O598   2.522       .  S
Zr595       O601   2.443       .  S
Zr595       O603   2.366       .  S
Zr595       O604   2.410       .  S
Zr595       O605   2.410       .  S
Zr595       O606   2.430       .  S
O596        H652   0.990       .  S
O596        H660   0.990       .  S
O597        C617   1.282       .  A
O598        C619   1.297       .  A
O599       Zr609   2.402       .  S
O599        C618   1.273       .  A
O600       Zr608   2.393       .  S
O600        C619   1.268       .  A
O601        C618   1.286       .  A
O602       Zr610   2.508       .  S
O602        C617   1.299       .  A
O603       Zr608   2.386       .  S
O603       Zr610   2.361       .  S
O604       Zr609   2.396       .  S
O604       Zr610   2.344       .  S
O604        H639   0.966       .  S
O605       Zr608   2.396       .  S
O605       Zr625   2.406       .  S
O605        H642   0.967       .  S
O606       Zr609   2.405       .  S
O606       Zr625   2.386       .  S
Zr607       O632   2.435       .  S
Zr607       O626   2.461       .  S
Zr607       O634   2.422       .  S
Zr607       O622   2.452       .  S
Zr607       O613   2.421       .  S
Zr607       O614   2.425       .  S
Zr607       O615   2.376       .  S
Zr607       O616   2.381       .  S
Zr608       O627   2.438       .  S
Zr608       O620   2.435       .  S
Zr608       O621   2.386       .  S
Zr608       O614   2.402       .  S
Zr608       O615   2.378       .  S
Zr609       O611   2.437       .  S
Zr609       O633   2.436       .  S
Zr609       O635   2.451       .  S
Zr609       O613   2.385       .  S
Zr609       O616   2.368       .  S
Zr610       O636   2.435       .  S
Zr610       O637   2.436       .  S
Zr610       O612   2.438       .  S
Zr610       O613   2.427       .  S
Zr610       O614   2.423       .  S
O611        H648   0.990       .  S
O612        H643   0.990       .  S
O612        H657   0.990       .  S
O614        H640   0.966       .  S
O615       Zr625   2.368       .  S
O616       Zr625   2.371       .  S
O616        H641   0.966       .  S
C617        C827   1.508       .  S
C618        C847   1.476       .  S
C619        C814   1.500       .  S
O620        H656   0.989       .  S
O621        C623   1.270       .  A
O622        C623   1.285       .  A
C623        C834   1.471       .  S
O624       Zr625   2.435       .  S
O624        H653   0.991       .  S
Zr625       O628   2.436       .  S
Zr625       O629   2.439       .  S
Zr625       O630   2.435       .  S
O626        C631   1.289       .  A
O627        H644   0.990       .  S
O627        H659   0.990       .  S
O628        H645   0.990       .  S
O629        H649   0.990       .  S
O629        H658   0.990       .  S
O630        C631   1.287       .  A
C631        C874   1.501       .  S
O632        H651   0.990       .  S
O632        H655   0.990       .  S
O633        H647   0.990       .  S
O633        H654   0.990       .  S
O634        C638   1.284       .  A
O635        C638   1.287       .  A
O636        H646   0.990       .  S
O637        H650   0.990       .  S
C638       C1097   1.476       .  S
Zr661       O662   2.436       .  S
Zr661       O663   2.423       .  S
Zr661       O664   2.501       .  S
Zr661       O667   2.452       .  S
Zr661       O669   2.375       .  S
Zr661       O670   2.393       .  S
Zr661       O671   2.404       .  S
Zr661       O672   2.408       .  S
O662        H718   0.990       .  S
O662        H726   0.990       .  S
O663        C683   1.284       .  A
O664        C685   1.297       .  A
O665       Zr675   2.365       .  S
O665        C684   1.274       .  A
O666       Zr674   2.405       .  S
O666        C685   1.275       .  A
O667        C684   1.291       .  A
O668       Zr676   2.502       .  S
O668        C683   1.297       .  A
O669       Zr674   2.392       .  S
O669       Zr676   2.363       .  S
O670       Zr675   2.383       .  S
O670       Zr676   2.356       .  S
O670        H705   0.965       .  S
O671       Zr674   2.398       .  S
O671       Zr691   2.396       .  S
O671        H708   0.966       .  S
O672       Zr675   2.393       .  S
O672       Zr691   2.377       .  S
Zr673       O698   2.436       .  S
Zr673       O692   2.474       .  S
Zr673       O700   2.443       .  S
Zr673       O688   2.430       .  S
Zr673       O679   2.417       .  S
Zr673       O680   2.434       .  S
Zr673       O681   2.382       .  S
Zr673       O682   2.376       .  S
Zr674       O693   2.439       .  S
Zr674       O686   2.436       .  S
Zr674       O687   2.406       .  S
Zr674       O680   2.400       .  S
Zr674       O681   2.377       .  S
Zr675       O677   2.438       .  S
Zr675       O699   2.439       .  S
Zr675       O701   2.428       .  S
Zr675       O679   2.372       .  S
Zr675       O682   2.360       .  S
Zr676       O702   2.436       .  S
Zr676       O703   2.435       .  S
Zr676       O678   2.440       .  S
Zr676       O679   2.424       .  S
Zr676       O680   2.423       .  S
O677        H714   0.990       .  S
O678        H709   0.990       .  S
O678        H723   0.990       .  S
O680        H706   0.966       .  S
O681       Zr691   2.365       .  S
O682       Zr691   2.380       .  S
O682        H707   0.966       .  S
C683        C857   1.503       .  S
C684        C804   1.469       .  S
C685        C824   1.489       .  S
O686        H722   0.990       .  S
O687        C689   1.275       .  A
O688        C689   1.281       .  A
C689        C797   1.471       .  S
O690       Zr691   2.434       .  S
O690        H719   0.990       .  S
Zr691       O694   2.435       .  S
Zr691       O695   2.438       .  S
Zr691       O696   2.418       .  S
O692        C697   1.292       .  A
O693        H710   0.990       .  S
O693        H725   0.989       .  S
O694        H711   0.990       .  S
O695        H715   0.990       .  S
O695        H724   0.990       .  S
O696        C697   1.283       .  A
C697        C917   1.495       .  S
O698        H717   0.990       .  S
O698        H721   0.990       .  S
O699        H713   0.990       .  S
O699        H720   0.990       .  S
O700        C704   1.287       .  A
O701        C704   1.284       .  A
O702        H712   0.990       .  S
O703        H716   0.990       .  S
C704       C1017   1.491       .  S
Zr727       O728   2.433       .  S
Zr727       O729   2.427       .  S
Zr727       O730   2.496       .  S
Zr727       O733   2.437       .  S
Zr727       O735   2.371       .  S
Zr727       O736   2.404       .  S
Zr727       O737   2.422       .  S
Zr727       O738   2.428       .  S
O728        H784   0.990       .  S
O728        H792   0.990       .  S
O729        C749   1.285       .  A
O730        C751   1.292       .  A
O731       Zr741   2.407       .  S
O731        C750   1.272       .  A
O732       Zr740   2.406       .  S
O732        C751   1.268       .  A
O733        C750   1.282       .  A
O734       Zr742   2.511       .  S
O734        C749   1.299       .  A
O735       Zr740   2.379       .  S
O735       Zr742   2.363       .  S
O736       Zr741   2.392       .  S
O736       Zr742   2.356       .  S
O736        H771   0.965       .  S
O737       Zr740   2.404       .  S
O737       Zr757   2.418       .  S
O737        H774   0.966       .  S
O738       Zr741   2.392       .  S
O738       Zr757   2.392       .  S
Zr739       O764   2.438       .  S
Zr739       O758   2.468       .  S
Zr739       O766   2.486       .  S
Zr739       O754   2.456   1_556  S
Zr739       O745   2.409       .  S
Zr739       O746   2.440       .  S
Zr739       O747   2.379       .  S
Zr739       O748   2.386       .  S
Zr740       O759   2.441   1_556  S
Zr740       O752   2.437       .  S
Zr740       O753   2.381   1_556  S
Zr740       O746   2.406       .  S
Zr740       O747   2.383       .  S
Zr741       O743   2.435       .  S
Zr741       O765   2.437       .  S
Zr741       O767   2.424       .  S
Zr741       O745   2.384       .  S
Zr741       O748   2.383       .  S
Zr742       O768   2.436       .  S
Zr742       O769   2.442       .  S
Zr742       O744   2.442       .  S
Zr742       O745   2.416       .  S
Zr742       O746   2.438       .  S
O743        H780   0.990       .  S
O744        H775   0.990       .  S
O744        H789   0.990       .  S
O746        H772   0.967       .  S
O747       Zr757   2.353       .  S
O748       Zr757   2.387       .  S
O748        H773   0.967       .  S
C749        C817   1.516       .  S
C750        C794   1.475       .  S
C751        C864   1.493       .  S
O752        H788   0.990   1_556  S
O753        C755   1.272       .  A
O754        C755   1.287       .  A
C755        C807   1.468       .  S
O756       Zr757   2.436       .  S
O756        H785   0.990       .  S
Zr757       O760   2.437       .  S
Zr757       O761   2.436       .  S
Zr757       O762   2.456       .  S
O758        C763   1.290       .  A
O759        H776   0.991   1_554  S
O759        H791   0.990       .  S
O760        H777   0.991       .  S
O761        H781   0.990       .  S
O761        H790   0.990       .  S
O762        C763   1.289       .  A
C763        C947   1.511       .  S
O764        H783   0.990       .  S
O764        H787   0.991       .  S
O765        H779   0.990       .  S
O765        H786   0.990       .  S
O766        C770   1.294       .  A
O767        C770   1.284       .  A
O768        H778   0.990       .  S
O769        H782   0.990       .  S
C770        C997   1.501       .  S
C793        C794   1.405       .  A
C793        C798   1.397       .  A
C793        H800   1.083       .  S
C794        C795   1.406       .  A
C795        C796   1.391       .  A
C795        F802   1.353       .  S
C796        C797   1.402       .  A
C796        H801   1.084       .  S
C797        C798   1.408       .  A
C798        F799   1.358       .  S
C803        C804   1.414       .  A
C803        C808   1.387       .  A
C803        H810   1.083       .  S
C804        C805   1.398       .  A
C805        C806   1.392       .  A
C805        F812   1.358       .  S
C806        C807   1.412       .  A
C806        H811   1.080       .  S
C807        C808   1.397       .  A
C808        F809   1.358       .  S
C813        C814   1.403       .  A
C813        C818   1.410   1_545  A
C813        H820   1.083       .  S
C814        C815   1.415       .  A
C815        C816   1.411   1_545  A
C815        F822   1.357       .  S
C816        C817   1.407       .  A
C816        H821   1.083       .  S
C817        C818   1.422       .  A
C818        F819   1.357       .  S
C823        C824   1.402   1_545  A
C823        C828   1.406       .  A
C823        H830   1.084   1_545  S
C824        C825   1.411   1_565  A
C825        C826   1.408       .  A
C825        F832   1.357   1_545  S
C826        C827   1.406       .  A
C826        H831   1.083       .  S
C827        C828   1.421       .  A
C828        F829   1.358       .  S
C833        C834   1.403       .  A
C833        C838   1.398       .  A
C833        H840   1.083       .  S
C834        C835   1.409       .  A
C835        C836   1.390       .  A
C835        F842   1.358       .  S
C836        C837   1.401       .  A
C836        H841   1.081       .  S
C837        C838   1.410       .  A
C838        F839   1.357       .  S
C843        C844   1.403       .  A
C843        C848   1.387       .  A
C843        H850   1.084       .  S
C844        C845   1.407       .  A
C845        C846   1.403       .  A
C845        F852   1.358       .  S
C846        C847   1.409       .  A
C846        H851   1.083       .  S
C847        C848   1.404       .  A
C848        F849   1.354       .  S
C853        C854   1.403   1_565  A
C853        C858   1.409       .  A
C853        H860   1.083       .  S
C854        C855   1.413       .  A
C855        C856   1.408   1_545  A
C855        F862   1.357       .  S
C856        C857   1.404       .  A
C856        H861   1.083       .  S
C857        C858   1.417       .  A
C858        F859   1.358       .  S
C863        C864   1.402   1_545  A
C863        C868   1.403       .  A
C863        H870   1.083       .  S
C864        C865   1.415   1_565  A
C865        C866   1.409       .  A
C865        F872   1.357   1_545  S
C866        C867   1.406       .  A
C866        H871   1.083   1_556  S
C867        C868   1.415       .  A
C868        F869   1.357       .  S
C873        C874   1.407       .  A
C873        C878   1.391       .  A
C873        H880   1.083       .  S
C874        C875   1.416       .  A
C875        C876   1.414       .  A
C875        F882   1.357       .  S
C876        C877   1.408       .  A
C876        H881   1.083       .  S
C877        C878   1.407       .  A
C878        F879   1.358       .  S
C883        C884   1.405       .  A
C883        C888   1.393       .  A
C883        H890   1.083       .  S
C884        C885   1.413       .  A
C885        C886   1.409       .  A
C885        F892   1.357       .  S
C886        C887   1.408       .  A
C886        H891   1.083       .  S
C887        C888   1.409       .  A
C888        F889   1.358       .  S
C893        C894   1.406       .  A
C893        C898   1.401       .  A
C893        H900   1.083       .  S
C894        C895   1.404       .  A
C895        C896   1.388       .  A
C895        F902   1.355       .  S
C896        C897   1.402       .  A
C896        H901   1.083       .  S
C897        C898   1.410       .  A
C898        F899   1.357       .  S
C903        C904   1.401       .  A
C903        C908   1.397       .  A
C903        H910   1.084       .  S
C904        C905   1.404       .  A
C905        C906   1.386       .  A
C905        F912   1.358       .  S
C906        C907   1.399       .  A
C906        H911   1.081       .  S
C907        C908   1.409       .  A
C908        F909   1.358       .  S
C913        C914   1.408       .  A
C913        C918   1.394       .  A
C913        H920   1.083       .  S
C914        C915   1.414       .  A
C915        C916   1.414       .  A
C915        F922   1.356       .  S
C916        C917   1.409       .  A
C916        H921   1.083       .  S
C917        C918   1.409       .  A
C918        F919   1.358       .  S
C923        C924   1.413       .  A
C923        C928   1.403       .  A
C923        H930   1.081       .  S
C924        C925   1.407       .  A
C925        C926   1.410   1_455  A
C925        F932   1.357       .  S
C926        C927   1.413       .  A
C926        H931   1.083       .  S
C927        C928   1.402   1_655  A
C928        F929   1.358       .  S
C933        C934   1.404       .  A
C933        C938   1.402   1_655  A
C933        H940   1.083       .  S
C934        C935   1.415       .  A
C935        C936   1.397       .  A
C935        F942   1.357       .  S
C936        C937   1.399   1_655  A
C936        H941   1.084   1_655  S
C937        C938   1.412       .  A
C938        F939   1.358       .  S
C943        C944   1.409       .  A
C943        C948   1.403   1_554  A
C943        H950   1.083       .  S
C944        C945   1.413       .  A
C945        C946   1.416   1_554  A
C945        F952   1.357       .  S
C946        C947   1.413       .  A
C946        H951   1.083       .  S
C947        C948   1.412       .  A
C948        F949   1.357       .  S
C953        C954   1.403   1_455  A
C953        C958   1.407       .  A
C953        H960   1.083   1_455  S
C954        C955   1.413   1_655  A
C955        C956   1.405       .  A
C955        F962   1.358   1_455  S
C956        C957   1.406       .  A
C956        H961   1.083       .  S
C957        C958   1.418       .  A
C958        F959   1.357       .  S
C963        C964   1.413       .  A
C963        C968   1.392       .  A
C963        H970   1.084       .  S
C964        C965   1.398       .  A
C965        C966   1.386       .  A
C965        F972   1.357       .  S
C966        C967   1.411       .  A
C966        H971   1.083       .  S
C967        C968   1.397       .  A
C968        F969   1.357       .  S
C973        C974   1.403       .  A
C973        C978   1.397       .  A
C973        H980   1.083       .  S
C974        C975   1.405       .  A
C975        C976   1.391       .  A
C975        F982   1.355       .  S
C976        C977   1.404       .  A
C976        H981   1.084       .  S
C977        C978   1.405       .  A
C978        F979   1.357       .  S
C983        C984   1.406       .  A
C983        C988   1.408   1_655  A
C983        H990   1.083       .  S
C984        C985   1.418       .  A
C985        C986   1.406       .  A
C985        F992   1.356       .  S
C986        C987   1.402   1_655  A
C986        H991   1.083       .  S
C987        C988   1.416       .  A
C988        F989   1.358       .  S
C993        C994   1.406       .  A
C993        C998   1.401       .  A
C993       H1000   1.083       .  S
C994        C995   1.417       .  A
C995        C996   1.416       .  A
C995       F1002   1.357       .  S
C996        C997   1.408       .  A
C996       H1001   1.083       .  S
C997        C998   1.411       .  A
C998        F999   1.358       .  S
C1003      C1004   1.408       .  A
C1003      C1008   1.401       .  A
C1003      H1010   1.083       .  S
C1004      C1005   1.407       .  A
C1005      C1006   1.399       .  A
C1005      F1012   1.357       .  S
C1006      C1007   1.408       .  A
C1006      H1011   1.083       .  S
C1007      C1008   1.412       .  A
C1008      F1009   1.358       .  S
C1013      C1014   1.405       .  A
C1013      C1018   1.408       .  A
C1013      H1020   1.083       .  S
C1014      C1015   1.400       .  A
C1015      C1016   1.395       .  A
C1015      F1022   1.358       .  S
C1016      C1017   1.409       .  A
C1016      H1021   1.083       .  S
C1017      C1018   1.412       .  A
C1018      F1019   1.357       .  S
C1023      C1024   1.412       .  A
C1023      C1028   1.408       .  A
C1023      H1030   1.083       .  S
C1024      C1025   1.413       .  A
C1025      C1026   1.406       .  A
C1025      F1032   1.358       .  S
C1026      C1027   1.412       .  A
C1026      H1031   1.083       .  S
C1027      C1028   1.409       .  A
C1028      F1029   1.357       .  S
C1033      C1034   1.410       .  A
C1033      C1038   1.397       .  A
C1033      H1040   1.083       .  S
C1034      C1035   1.404       .  A
C1035      C1036   1.391       .  A
C1035      F1042   1.358       .  S
C1036      C1037   1.403   1_556  A
C1036      H1041   1.084       .  S
C1037      C1038   1.399   1_554  A
C1038      F1039   1.357   1_556  S
C1043      C1044   1.406       .  A
C1043      C1048   1.393       .  A
C1043      H1050   1.083       .  S
C1044      C1045   1.408       .  A
C1045      C1046   1.402       .  A
C1045      F1052   1.357       .  S
C1046      C1047   1.408       .  A
C1046      H1051   1.083       .  S
C1047      C1048   1.405       .  A
C1048      F1049   1.355       .  S
C1053      C1054   1.409       .  A
C1053      C1058   1.401       .  A
C1053      H1060   1.083       .  S
C1054      C1055   1.414       .  A
C1055      C1056   1.410       .  A
C1055      F1062   1.357       .  S
C1056      C1057   1.406       .  A
C1056      H1061   1.083       .  S
C1057      C1058   1.408       .  A
C1058      F1059   1.358       .  S
C1063      C1064   1.408       .  A
C1063      C1068   1.406       .  A
C1063      H1070   1.083   1_556  S
C1064      C1065   1.413       .  A
C1065      C1066   1.398       .  A
C1065      F1072   1.358       .  S
C1066      C1067   1.406       .  A
C1066      H1071   1.083       .  S
C1067      C1068   1.414       .  A
C1068      F1069   1.357   1_556  S
C1073      C1074   1.405       .  A
C1073      C1078   1.406       .  A
C1073      H1080   1.083       .  S
C1074      C1075   1.417       .  A
C1075      C1076   1.409       .  A
C1075      F1082   1.355       .  S
C1076      C1077   1.406       .  A
C1076      H1081   1.083       .  S
C1077      C1078   1.415       .  A
C1078      F1079   1.357       .  S
C1083      C1084   1.414       .  A
C1083      C1088   1.408       .  A
C1083      H1090   1.083       .  S
C1084      C1085   1.407       .  A
C1085      C1086   1.410       .  A
C1085      F1092   1.357       .  S
C1086      C1087   1.415       .  A
C1086      H1091   1.083       .  S
C1087      C1088   1.405       .  A
C1088      F1089   1.357   1_554  S
C1093      C1094   1.405       .  A
C1093      C1098   1.394       .  A
C1093      H1100   1.084       .  S
C1094      C1095   1.409       .  A
C1095      C1096   1.405       .  A
C1095      F1102   1.358       .  S
C1096      C1097   1.406       .  A
C1096      H1101   1.083       .  S
C1097      C1098   1.403       .  A
C1098      F1099   1.358       .  S
C1103      C1104   1.411       .  A
C1103      C1108   1.401       .  A
C1103      H1110   1.083       .  S
C1104      C1105   1.408       .  A
C1105      C1106   1.396       .  A
C1105      F1112   1.357       .  S
C1106      C1107   1.408       .  A
C1106      H1111   1.083       .  S
C1107      C1108   1.406       .  A
C1108      F1109   1.358       .  S
C1113      C1114   1.405       .  A
C1113      C1118   1.387       .  A
C1113      H1120   1.083       .  S
C1114      C1115   1.408       .  A
C1115      C1116   1.404       .  A
C1115      F1122   1.358       .  S
C1116      C1117   1.411       .  A
C1116      H1121   1.083       .  S
C1117      C1118   1.401       .  A
C1118      F1119   1.350       .  S
C1123      C1124   1.413       .  A
C1123      C1128   1.390       .  A
C1123      H1130   1.083       .  S
C1124      C1125   1.398       .  A
C1125      C1126   1.393       .  A
C1125      F1132   1.358       .  S
C1126      C1127   1.415       .  A
C1126      H1131   1.083       .  S
C1127      C1128   1.399       .  A
C1128      F1129   1.357       .  S
C1133      C1134   1.413       .  A
C1133      C1138   1.407       .  A
C1133      H1140   1.082       .  S
C1134      C1135   1.409       .  A
C1135      C1136   1.412       .  A
C1135      F1142   1.357       .  S
C1136      C1137   1.414       .  A
C1136      H1141   1.084       .  S
C1137      C1138   1.403       .  A
C1138      F1139   1.357       .  S
C1143      C1144   1.399       .  A
C1143      C1148   1.402       .  A
C1143      H1150   1.084       .  S
C1144      C1145   1.414       .  A
C1145      C1146   1.408       .  A
C1145      F1152   1.358       .  S
C1146      C1147   1.405       .  A
C1146      H1151   1.083       .  S
C1147      C1148   1.419       .  A
C1148      F1149   1.357       .  S
