geometry optimzed in LAMMPS
_audit_creation_date              2020-11-30 
_audit_creation_method            'lammps2cif' 
_symmetry_space_group_name_H-M    'P1' 
_symmetry_Int_Tables_number       1 
_symmetry_cell_setting            triclinic 
loop_ 
_symmetry_equiv_pos_as_xyz 
  x,y,z 
_cell_length_a                    63.14072524 
_cell_length_b                    63.324274890422764 
_cell_length_c                    39.59281979911581 
_cell_angle_alpha                 90.06829807704874 
_cell_angle_beta                  89.7676334214911 
_cell_angle_gamma                 120.3420193820827 
loop_ 
_atom_site_label 
_atom_site_type_symbol 
_atom_site_fract_x 
_atom_site_fract_y 
_atom_site_fract_z 
_atom_site_charge 
O1          O  0.08206794  0.44582498  0.19151374    -0.82200
C2          C  0.16751433  0.46573141  0.25352740     0.97200
O3          O  0.15744129  0.44954649  0.23005239    -0.71300
O4          O  0.10959045  0.42020286  0.23052666    -0.74900
Al5        Al  0.13043474  0.44225166  0.19804131     1.49000
C6          C  0.09530397  0.41961632  0.25299913     0.92400
O7          O  0.11334041  0.48467445  0.26793025    -0.81100
O8          O  0.14562594  0.50747761  0.17924125    -0.74700
Al9        Al  0.10085002  0.46534557  0.22752909     1.90100
O10         O  0.14625228  0.51394949  0.24555446    -0.73800
O11         O  0.17766309  0.49087074  0.18776450    -0.73600
O12         O  0.16585672  0.48493889  0.25344700    -0.79300
O13         O  0.15197007  0.45870056  0.16064833    -0.77500
O14         O  0.12873079  0.46761075  0.21380695    -1.13600
O15         O  0.10339722  0.43197577  0.16582901    -0.72800
C16         C  0.08435953  0.43395734  0.16785892     0.97900
C17         C  0.12976568  0.50681096  0.26749039     0.94300
Al18       Al  0.15615787  0.49643270  0.21619397     1.55600
O19         O  0.09100278  0.43702349  0.25621675    -0.77400
C20         C  0.17356403  0.47592618  0.16443691     0.98500
C21         C  0.12512175  0.50690587  0.17883060     0.93400
O22         O  0.10753544  0.49326770  0.19908150    -0.82700
O23         O  0.99373723  0.18893356  0.44097312    -0.82200
C24         C  0.03226161  0.20014190  0.31380699     0.97200
O25         O  0.03116927  0.18820753  0.33994513    -0.71300
O26         O  0.03022577  0.18179654  0.40471941    -0.74900
Al27       Al  0.00608103  0.17413161  0.37227770     1.49000
C28         C  0.04509709  0.20030521  0.42078396     0.92400
O29         O  0.03095061  0.24991073  0.39497773    -0.81100
O30         O  0.97229452  0.21813383  0.36270763    -0.74700
Al31       Al  0.01205422  0.21803983  0.41433461     1.90100
O32         O  0.02033287  0.24457953  0.34166285    -0.73800
O33         O  0.96677537  0.17995177  0.32879197    -0.73600
O34         O  0.01672499  0.20696529  0.30862399    -0.79300
O35         O  0.98269867  0.15734157  0.33844488    -0.77500
O36         O  0.00437200  0.20150283  0.37506479    -1.13600
O37         O  0.98092973  0.15819794  0.40496906    -0.72800
C38         C  0.98005043  0.16649318  0.43372521     0.97900
C39         C  0.03246104  0.25835395  0.36571178     0.94300
Al40       Al  0.99488266  0.21142501  0.33869050     1.55600
O41         O  0.04236847  0.21862934  0.42103102    -0.77400
C42         C  0.96598797  0.15979303  0.32597168     0.98500
C43         C  0.96973904  0.22147309  0.39359110     0.93400
O44         O  0.98381184  0.22079136  0.41534307    -0.82700
O45         O  0.87011879  0.34156087  0.10426458    -0.82200
C46         C  0.83168102  0.30982923  0.47726109     0.97200
O47         O  0.82433440  0.30835849  0.00717635    -0.71300
O48         O  0.82422631  0.30853465  0.07376294    -0.74900
Al49       Al  0.83972471  0.33315429  0.03998085     1.49000
C50         C  0.82796406  0.29220067  0.08508812     0.92400
O51         O  0.88909254  0.30471595  0.04545416    -0.81100
O52         O  0.91634004  0.35856130  0.01555875    -0.74700
Al53       Al  0.87859223  0.32374058  0.07162222     1.90100
O54         O  0.88415835  0.31214473  0.99276336    -0.73800
O55         O  0.88511853  0.37236892  0.49523593    -0.73600
O56         O  0.85378884  0.32533258  0.46967447    -0.79300
O57         O  0.84673203  0.35824736  0.00773355    -0.77500
O58         O  0.86754268  0.33273632  0.03616534    -1.13600
O59         O  0.85352554  0.35781879  0.07268164    -0.72800
C60         C  0.86241754  0.35652268  0.10055183     0.97900
C61         C  0.88890809  0.30043471  0.01413686     0.94300
Al62       Al  0.88354863  0.34143601  0.99674629     1.55600
O63         O  0.84826224  0.29351713  0.07943531    -0.77400
C64         C  0.86643232  0.37470710  0.49515455     0.98500
C65         C  0.92462143  0.36270937  0.04535454     0.93400
O66         O  0.91045701  0.35204884  0.06996815    -0.82700
O67         O  0.89145231  0.57030219  0.24764849    -0.82200
C68         C  0.86227597  0.50307522  0.35064620     0.97200
O69         O  0.86737768  0.52524211  0.35551282    -0.71300
O70         O  0.90664984  0.56074243  0.32730688    -0.74900
Al71       Al  0.87379723  0.55195842  0.32368226     1.49000
C72         C  0.92253155  0.56077676  0.30830913     0.92400
O73         O  0.88687233  0.50906499  0.25340478    -0.81100
O74         O  0.82654942  0.51365575  0.25430401    -0.74700
Al75       Al  0.88693911  0.53920876  0.25331287     1.90100
O76         O  0.84771419  0.48591548  0.25577084    -0.73800
O77         O  0.82080481  0.50864049  0.32164671    -0.73600
O78         O  0.85210611  0.49191759  0.32340401    -0.79300
O79         O  0.84137540  0.54778561  0.32806867    -0.77500
O80         O  0.86706278  0.53188724  0.28868318    -1.13600
O81         O  0.88307078  0.58139826  0.29603932    -0.72800
C82         C  0.89116736  0.58639495  0.26576628     0.97900
C83         C  0.86819620  0.48876964  0.24761858     0.94300
Al84       Al  0.83943460  0.50288726  0.28886420     1.55600
O85         O  0.91707360  0.55203638  0.27882633    -0.77400
C86         C  0.82199886  0.52764543  0.33296642     0.98500
C87         C  0.83684481  0.52153065  0.22573313     0.93400
O88         O  0.85951209  0.52826229  0.22127181    -0.82700
O89         O  0.10823909  0.68707278  0.49880170    -0.82200
C90         C  0.14242646  0.64597878  0.40843033     0.97200
O91         O  0.13937224  0.66402639  0.40051647    -0.71300
O92         O  0.09957651  0.66401435  0.42112589    -0.74900
Al93       Al  0.13281549  0.68607088  0.42913920     1.49000
C94         C  0.08211949  0.64675604  0.43663599     0.92400
O95         O  0.11038513  0.62937020  0.00206808    -0.81100
O96         O  0.17300611  0.69202276  0.50474866    -0.74700
Al97       Al  0.11209533  0.65984633  0.49752473     1.90100
O98         O  0.14920468  0.64321387  0.50519165    -0.73800
O99         O  0.18346621  0.69152961  0.43859662    -0.73600
O100        O  0.14942339  0.64391949  0.43761509    -0.79300
O101        O  0.16586235  0.71247417  0.42943100    -0.77500
O102        O  0.13507508  0.67140852  0.46580217    -1.13600
O103        O  0.12536640  0.70853259  0.45341244    -0.72800
C104        C  0.11462316  0.70593146  0.48160256     0.97900
C105        C  0.12776076  0.62701912  0.01211017     0.94300
Al106      Al  0.16131660  0.66802710  0.47102065     1.55600
O107        O  0.08482448  0.64261054  0.46706693    -0.77400
C108        C  0.18439885  0.71031298  0.42675519     0.98500
C109        C  0.16061685  0.69142128  0.03045623     0.93400
O110        O  0.13735747  0.67658631  0.03263971    -0.82700
O111        O  0.98629136  0.76825714  0.16386037    -0.82200
C112        C  0.01968460  0.83614844  0.06059208     0.97200
O113        O  0.00253037  0.81405331  0.05582480    -0.71300
O114        O  0.01414250  0.78371003  0.08063364    -0.74900
Al115      Al  0.98673726  0.78675743  0.08789670     1.49000
C116        C  0.02951943  0.78291079  0.09960237     0.92400
O117        O  0.04208391  0.83101606  0.15774609    -0.81100
O118        O  0.97547728  0.82235431  0.16016192    -0.74700
Al119      Al  0.01257003  0.79990394  0.15796936     1.90100
O120        O  0.02449826  0.85266222  0.15554786    -0.73800
O121        O  0.97205257  0.82545292  0.09413138    -0.73600
O122        O  0.02131714  0.84689376  0.08839115    -0.79300
O123        O  0.95616900  0.78630104  0.08892609    -0.77500
O124        O  0.99918017  0.80657602  0.12342397    -1.13600
O125        O  0.97061105  0.75611286  0.11377804    -0.72800
C126        C  0.97237974  0.75130293  0.14442338     0.97900
C127        C  0.04279859  0.85089712  0.16313739     0.94300
Al128      Al  0.99838361  0.83432130  0.12433465     1.55600
O129        O  0.03063842  0.78838149  0.13064929    -0.77400
C130        C  0.95441474  0.80511282  0.08558165     0.98500
C131        C  0.97870071  0.81477478  0.18821943     0.93400
O132        O  0.99561578  0.80940288  0.19154163    -0.82700
O133        O  0.33547697  0.85545066  0.28101195    -0.82200
C134        C  0.35454238  0.85289039  0.14628525     0.97200
O135        O  0.35904105  0.84677458  0.17447707    -0.71300
O136        O  0.36610623  0.84727286  0.23997566    -0.74900
Al137      Al  0.33757630  0.83557480  0.21167158     1.49000
C138        C  0.38257937  0.86860473  0.24819287     0.92400
O139        O  0.36008229  0.91316658  0.22203107    -0.81100
O140        O  0.30689122  0.88394618  0.20447571    -0.74700
Al141      Al  0.34706712  0.88232773  0.24793826     1.90100
O142        O  0.35069814  0.89997705  0.17022449    -0.73800
O143        O  0.29280216  0.83941688  0.17990448    -0.73600
O144        O  0.33753857  0.85807546  0.14357256    -0.79300
O145        O  0.30959681  0.81662678  0.18279564    -0.77500
O146        O  0.33586189  0.86268831  0.21237635    -1.13600
O147        O  0.31624009  0.82269052  0.24906833    -0.72800
C148        C  0.32029405  0.83259922  0.27786692     0.97900
C149        C  0.36152236  0.91737684  0.19041417     0.94300
Al150      Al  0.32289240  0.86964609  0.17754083     1.55600
O151        O  0.37892343  0.88628442  0.24499652    -0.77400
C152        C  0.29166028  0.81923762  0.17513508     0.98500
C153        C  0.30504278  0.88594004  0.23618467     0.93400
O154        O  0.31711171  0.88071490  0.25605444    -0.82700
O155        O  0.19712005  0.00438929  0.44112896    -0.82200
C156        C  0.17090546  0.98401747  0.30856054     0.97200
O157        O  0.16078198  0.98074931  0.33716193    -0.71300
O158        O  0.15407754  0.97627497  0.40251302    -0.74900
Al159      Al  0.17306063  0.00276191  0.37317383     1.49000
C160        C  0.15519182  0.95789259  0.41121630     0.92400
O161        O  0.21883659  0.96994586  0.38048855    -0.81100
O162        O  0.25081384  0.03087644  0.36527437    -0.74700
Al163      Al  0.20687670  0.98760413  0.40792324     1.90100
O164        O  0.22362131  0.98676265  0.33098838    -0.73800
O165        O  0.22200306  0.04494974  0.34017651    -0.73600
O166        O  0.19380770  0.99963365  0.30489793    -0.79300
O167        O  0.18282086  0.02992510  0.34325330    -0.77500
O168        O  0.20060270  0.00151364  0.37315973    -1.13600
O169        O  0.18441277  0.02469469  0.40944705    -0.72800
C170        C  0.19234584  0.02163775  0.43723342     0.97900
C171        C  0.22460910  0.97124769  0.34946174     0.94300
Al172      Al  0.22088459  0.01440840  0.33828744     1.55600
O173        O  0.17518273  0.95822909  0.40758840    -0.77400
C174        C  0.20375647  0.04748916  0.33627875     0.98500
C175        C  0.25521154  0.02982129  0.39628365     0.93400
O176        O  0.23886551  0.01369522  0.41469897    -0.82700
O177        O  0.47267384  0.13981192  0.47632478    -0.82200
C178        C  0.49809922  0.14869347  0.10948114     0.97200
O179        O  0.50898349  0.15478618  0.08113135    -0.71300
O180        O  0.51545178  0.15365150  0.01468668    -0.74900
Al181      Al  0.49780029  0.16408846  0.04318736     1.49000
C182        C  0.51211830  0.13279984  0.50736040     0.92400
O183        O  0.44769148  0.08564855  0.04096938    -0.81100
O184        O  0.41934922  0.11835234  0.05299148    -0.74700
Al185      Al  0.46116634  0.11438513  0.01159136     1.90100
O186        O  0.44349558  0.09994213  0.08917781    -0.73800
O187        O  0.45047825  0.16168142  0.07564066    -0.73600
O188        O  0.47558678  0.14266855  0.11248183    -0.79300
O189        O  0.48994413  0.18394011  0.07134480    -0.77500
O190        O  0.46901669  0.13613419  0.04480813    -1.13600
O191        O  0.48739808  0.17431892  0.00537630    -0.72800
C192        C  0.47950933  0.16255237  0.47795079     0.97900
C193        C  0.44172586  0.08252380  0.07199608     0.94300
Al194      Al  0.44897095  0.13107896  0.07947097     1.55600
O195        O  0.49145794  0.11424947  0.51274144    -0.77400
C196        C  0.46976925  0.18176516  0.07989420     0.98500
C197        C  0.41457820  0.11150616  0.02260409     0.93400
O198        O  0.43013171  0.11038698  0.00415692    -0.82700
O199        O  0.76716716  0.98920618  0.09268085    -0.82200
C200        C  0.83808976  0.01838001  0.18866762     0.97200
O201        O  0.81523715  0.00302655  0.19498824    -0.71300
O202        O  0.77954707  0.00927941  0.17179770    -0.74900
Al203      Al  0.78676818  0.98435435  0.16419282     1.49000
C204        C  0.78204279  0.02749782  0.15597717     0.92400
O205        O  0.83253964  0.04127083  0.09466979    -0.81100
O206        O  0.81958418  0.97336006  0.09147839    -0.74700
Al207      Al  0.80013989  0.01324903  0.09678954     1.90100
O208        O  0.85154250  0.02123637  0.09417875    -0.73800
O209        O  0.82685523  0.97087487  0.15785619    -0.73600
O210        O  0.84799299  0.01903998  0.16052560    -0.79300
O211        O  0.78804196  0.95493336  0.16395250    -0.77500
O212        O  0.80654647  0.99810268  0.12926009    -1.13600
O213        O  0.75714164  0.96552021  0.13683548    -0.72800
C214        C  0.75178178  0.97026363  0.10795883     0.97900
C215        C  0.85152026  0.04027548  0.08730155     0.94300
Al216      Al  0.83380862  0.99625577  0.12625646     1.55600
O217        O  0.79170372  0.03237824  0.12672316    -0.77400
C218        C  0.80677799  0.95326666  0.16716694     0.98500
C219        C  0.81034689  0.97664800  0.06495836     0.93400
O220        O  0.80644301  0.99461864  0.06211301    -0.82700
O221        O  0.57318679  0.89496866  0.50003503    -0.82200
C222        C  0.50817608  0.86128636  0.39115487     0.97200
O223        O  0.53095877  0.86809404  0.38867414    -0.71300
O224        O  0.56090493  0.90984227  0.41750444    -0.74900
Al225      Al  0.55699582  0.87877609  0.42279978     1.49000
C226        C  0.55988312  0.92486190  0.43712203     0.92400
O227        O  0.51079699  0.88791209  0.99349055    -0.81100
O228        O  0.51797811  0.82970774  0.49074734    -0.74700
Al229      Al  0.54176050  0.88949680  0.99327552     1.90100
O230        O  0.48827218  0.84871492  0.48572689    -0.73800
O231        O  0.51736255  0.82513508  0.42402347    -0.73600
O232        O  0.49674165  0.85332707  0.41894869    -0.79300
O233        O  0.55685484  0.84841700  0.42251142    -0.77500
O234        O  0.53573295  0.87042547  0.45701926    -1.13600
O235        O  0.58644559  0.89169478  0.45050784    -0.72800
C236        C  0.59028801  0.89713789  0.48155563     0.97900
C237        C  0.49053397  0.86855278  0.99650762     0.94300
Al238      Al  0.50763612  0.84188648  0.45510042     1.55600
O239        O  0.55340877  0.91946828  0.46768387    -0.77400
C240        C  0.53804266  0.82802136  0.41684120     0.98500
C241        C  0.52645850  0.84011770  0.01892341     0.93400
O242        O  0.53155801  0.86206131  0.02453008    -0.82700
O243        O  0.67993967  0.10985369  0.24540754    -0.82200
C244        C  0.64312769  0.13990206  0.35553884     0.97200
O245        O  0.65826696  0.13226619  0.35764058    -0.71300
O246        O  0.64498763  0.09123655  0.32494861    -0.74900
Al247      Al  0.67396545  0.12209063  0.32364010     1.49000
C248        C  0.63074071  0.07719606  0.30247063     0.92400
O249        O  0.62408050  0.11687417  0.24710863    -0.81100
O250        O  0.68821734  0.17503367  0.25864138    -0.74700
Al251      Al  0.65342017  0.11535890  0.25010712     1.90100
O252        O  0.63879705  0.15470494  0.26154176    -0.73800
O253        O  0.68943748  0.17587260  0.32487849    -0.73600
O254        O  0.64021965  0.14795299  0.32766285    -0.79300
O255        O  0.70491988  0.15210847  0.32738027    -0.77500
O256        O  0.66375278  0.13238077  0.28868000    -1.13600
O257        O  0.69121522  0.10953787  0.29724499    -0.72800
C258        C  0.69276076  0.10620014  0.26603005     0.97900
C259        C  0.62217563  0.13562550  0.24811077     0.94300
Al260      Al  0.66406305  0.16066105  0.29262264     1.55600
O261        O  0.63311773  0.08402132  0.27193151    -0.77400
C262        C  0.70670061  0.17256199  0.33295888     0.98500
C263        C  0.68869661  0.16642028  0.23002579     0.93400
O264        O  0.67298681  0.14441083  0.22210316    -0.82700
O265        O  0.44212723  0.34331664  0.34106594    -0.82200
C266        C  0.47586412  0.31082054  0.23260379     0.97200
O267        O  0.46867179  0.32628158  0.22981372    -0.71300
O268        O  0.42576034  0.31198850  0.25761478    -0.74900
Al269      Al  0.45648653  0.34048038  0.26334929     1.49000
C270        C  0.40990476  0.29766704  0.27837614     0.92400
O271        O  0.44493306  0.28593059  0.33421969    -0.81100
O272        O  0.50509903  0.35075205  0.33403278    -0.74700
Al273      Al  0.44522820  0.31603638  0.33464271     1.90100
O274        O  0.48411812  0.30122708  0.32695159    -0.73800
O275        O  0.51069352  0.35622611  0.26771404    -0.73600
O276        O  0.48248079  0.30693851  0.26090928    -0.79300
O277        O  0.48672203  0.37142842  0.26333310    -0.77500
O278        O  0.46464461  0.32840248  0.29850769    -1.13600
O279        O  0.44212143  0.35622487  0.29006014    -0.72800
C280        C  0.43838522  0.35655345  0.32152030     0.97900
C281        C  0.46362276  0.28392290  0.33656059     0.94300
Al282      Al  0.49301807  0.32874544  0.29755807     1.55600
O283        O  0.41473968  0.29883904  0.30955519    -0.77400
C284        C  0.50749036  0.37350383  0.25888011     0.98500
C285        C  0.49487835  0.34790586  0.36252044     0.93400
O286        O  0.47236402  0.33175854  0.36680532    -0.82700
O287        O  0.24423869  0.22088029  0.16321810    -0.82200
C288        C  0.16934790  0.18814817  0.06698085     0.97200
O289        O  0.19163090  0.19486433  0.05977097    -0.71300
O290        O  0.22667971  0.23626278  0.08284697    -0.74900
Al291      Al  0.22046948  0.20424265  0.08829734     1.49000
C292        C  0.22986363  0.25310458  0.10255551     0.92400
O293        O  0.18560545  0.22208598  0.16485104    -0.81100
O294        O  0.18615378  0.16037579  0.16599616    -0.74700
Al295      Al  0.21419660  0.21980254  0.16118563     1.90100
O296        O  0.15956466  0.18316986  0.16153801    -0.73800
O297        O  0.17980615  0.15050151  0.10152816    -0.73600
O298        O  0.16058351  0.17965815  0.09575128    -0.79300
O299        O  0.21770400  0.17286695  0.08602075    -0.77500
O300        O  0.20319175  0.19860643  0.12652089    -1.13600
O301        O  0.25177026  0.21496330  0.11091090    -0.72800
C302        C  0.25820933  0.21972066  0.14162240     0.97900
C303        C  0.16472669  0.20421322  0.17099184     0.94300
Al304      Al  0.17425743  0.17101244  0.13077348     1.55600
O305        O  0.22729761  0.24924861  0.13401309    -0.77400
C306        C  0.19846126  0.15234517  0.08749137     0.98500
C307        C  0.19433254  0.17126133  0.19368278     0.93400
O308        O  0.20292854  0.19422541  0.19566571    -0.82700
O309        O  0.35312852  0.45102402  0.41920230    -0.82200
C310        C  0.30810078  0.47789543  0.01973073     0.97200
O311        O  0.32381025  0.47128473  0.02618928    -0.71300
O312        O  0.31250449  0.42903698  0.49889572    -0.74900
Al313      Al  0.34106925  0.45972516  0.49587053     1.49000
C314        C  0.30353875  0.41283929  0.47654946     0.92400
O315        O  0.29216790  0.44670118  0.41925377    -0.81100
O316        O  0.35577844  0.50970023  0.42423043    -0.74700
Al317      Al  0.32355481  0.45003381  0.42180528     1.90100
O318        O  0.30515343  0.48573226  0.42402522    -0.73800
O319        O  0.35608845  0.51348225  0.49084313    -0.73600
O320        O  0.30624707  0.48436325  0.49040412    -0.79300
O321        O  0.37161673  0.48987487  0.99826832    -0.77500
O322        O  0.33182595  0.46838595  0.45850292    -1.13600
O323        O  0.35891584  0.44541037  0.47202126    -0.72800
C324        C  0.36262579  0.44392778  0.44057155     0.97900
C325        C  0.28917019  0.46457866  0.41424955     0.94300
Al326      Al  0.33091890  0.49600604  0.45747914     1.55600
O327        O  0.30781502  0.41851463  0.44555021    -0.77400
C328        C  0.37298503  0.51028279  0.00188742     0.98500
C329        C  0.35458115  0.50023682  0.39571802     0.93400
O330        O  0.33900204  0.47778074  0.39034668    -0.82700
O331        O  0.52501836  0.66151720  0.13670939    -0.82200
C332        C  0.52457666  0.69282661  0.26560865     0.97200
O333        O  0.51665944  0.69413891  0.23683381    -0.71300
O334        O  0.51261065  0.69445031  0.17051842    -0.74900
Al335      Al  0.50470927  0.66974026  0.20337746     1.49000
C336        C  0.53255495  0.71145757  0.15951057     0.92400
O337        O  0.58247687  0.69994784  0.19219956    -0.81100
O338        O  0.54989837  0.63740277  0.21490340    -0.74700
Al339      Al  0.55244498  0.68037447  0.16735082     1.90100
O340        O  0.57268840  0.68431414  0.24312956    -0.73800
O341        O  0.50881331  0.62877713  0.24431802    -0.73600
O342        O  0.53135075  0.67711601  0.27080276    -0.79300
O343        O  0.48642951  0.64523150  0.23650971    -0.77500
O344        O  0.53280396  0.66937475  0.20364752    -1.13600
O345        O  0.49208794  0.64532401  0.17003563    -0.72800
C346        C  0.50259244  0.64555989  0.14258617     0.97900
C347        C  0.58806197  0.69963280  0.22275851     0.94300
Al348      Al  0.54014737  0.65793384  0.24010027     1.55600
O349        O  0.55139021  0.70977758  0.16266123    -0.77400
C350        C  0.48873305  0.62809531  0.24794034     0.98500
C351        C  0.55621272  0.63753290  0.18433471     0.93400
O352        O  0.55781411  0.65385737  0.16484764    -0.82700
O353        O  0.66153903  0.52007743  0.11440780    -0.82200
C354        C  0.68587471  0.51773663  0.48238965     0.97200
O355        O  0.68760579  0.50934411  0.01079025    -0.71300
O356        O  0.69152299  0.50801225  0.07709712    -0.74900
Al357      Al  0.66476690  0.49898282  0.04636729     1.49000
C358        C  0.70948120  0.52870883  0.08415707     0.92400
O359        O  0.69388336  0.57756015  0.05574387    -0.81100
O360        O  0.63497789  0.54699253  0.03695060    -0.74700
Al361      Al  0.67730709  0.54718044  0.08142354     1.90100
O362        O  0.67982036  0.56613978  0.00457331    -0.73800
O363        O  0.62275536  0.50430534  0.50925797    -0.73600
O364        O  0.66994504  0.52431760  0.47760755    -0.79300
O365        O  0.63828416  0.48083172  0.01565413    -0.77500
O366        O  0.66495866  0.52730796  0.04591759    -1.13600
O367        O  0.64181994  0.48740593  0.08204200    -0.72800
C368        C  0.64482158  0.49768686  0.11047322     0.97900
C369        C  0.69333385  0.58257744  0.02491467     0.94300
Al370      Al  0.65290963  0.53472222  0.01026799     1.55600
O371        O  0.70764232  0.54738802  0.08005326    -0.77400
C372        C  0.62099201  0.48381160  0.50579045     0.98500
C373        C  0.63527977  0.55206900  0.06814298     0.93400
O374        O  0.64990920  0.55063448  0.08800083    -0.82700
O375        O  0.80341447  0.80174862  0.44689965    -0.82200
C376        C  0.81374961  0.82874948  0.31474967     0.97200
O377        O  0.82069952  0.83893823  0.34333231    -0.71300
O378        O  0.82223887  0.84605193  0.40942922    -0.74900
Al379      Al  0.82903871  0.82636595  0.38031742     1.49000
C380        C  0.80274583  0.84557234  0.41682694     0.92400
O381        O  0.75037108  0.78497876  0.38358630    -0.81100
O382        O  0.77991771  0.74985511  0.37356002    -0.74700
Al383      Al  0.77831720  0.79416079  0.41242915     1.90100
O384        O  0.76118696  0.77439618  0.33678701    -0.73800
O385        O  0.82257975  0.77818331  0.34603685    -0.73600
O386        O  0.80501108  0.80563589  0.31162896    -0.79300
O387        O  0.84700082  0.81704200  0.35126100    -0.77500
O388        O  0.79957368  0.79942595  0.37912339    -1.13600
O389        O  0.83767676  0.81389447  0.41728084    -0.72800
C390        C  0.82522523  0.80541348  0.44418938     0.97900
C391        C  0.74581328  0.77711415  0.35358333     0.94300
Al392      Al  0.79260617  0.77872872  0.34494437     1.55600
O393        O  0.78273925  0.82626320  0.41181039    -0.77400
C394        C  0.84344094  0.79661116  0.34211528     0.98500
C395        C  0.77168827  0.74558037  0.40356269     0.93400
O396        O  0.76956972  0.76157952  0.41927605    -0.82700
C397        C  0.70714630  0.60803744  0.01149917     0.00900
C398        C  0.69432066  0.61704036  0.99257767     0.03800
C399        C  0.70711419  0.63967012  0.47558921    -0.12300
C400        C  0.73291628  0.65320886  0.47630544     0.23100
C401        C  0.74574234  0.64478524  0.49609957    -0.12900
C402        C  0.73280330  0.62256404  0.51427689     0.04500
C403        C  0.74606288  0.67698446  0.45774039     0.26900
C404        C  0.74817995  0.67751425  0.42222900    -0.13600
C405        C  0.75679675  0.69969017  0.40419243     0.05000
C406        C  0.76442220  0.72194387  0.42178426    -0.09500
C407        C  0.76408154  0.72129277  0.45793172     0.05800
C408        C  0.75419622  0.69892864  0.47543855    -0.13900
Br409      Br  0.78107437  0.66368894  0.49800042    -0.06000
Br410      Br  0.65889203  0.59887097  0.98990742    -0.00300
Br411      Br  0.75648206  0.69852916  0.35545389     0.00100
Br412      Br  0.75057887  0.69815195  0.02426528    -0.04300
Br413      Br  0.75054308  0.61216591  0.04286724     0.00200
Br414      Br  0.68930142  0.65272388  0.45233677    -0.03600
Br415      Br  0.73840458  0.64736087  0.39841748    -0.04500
Br416      Br  0.77766842  0.75049690  0.48541695    -0.00500
C417        C  0.72185855  0.76984529  0.33738847     0.00900
C418        C  0.72064447  0.78385187  0.31058836     0.03800
C419        C  0.69953994  0.77437390  0.29002759    -0.12300
C420        C  0.67896028  0.75116215  0.29698633     0.23100
C421        C  0.67966276  0.73776526  0.32508443    -0.12900
C422        C  0.70115059  0.74687809  0.34480224     0.04500
C423        C  0.65692543  0.74042076  0.27432116     0.26900
C424        C  0.63887099  0.74720340  0.27778519    -0.13600
C425        C  0.61707779  0.73528623  0.25858059     0.05000
C426        C  0.61314389  0.71656207  0.23570216    -0.09500
C427        C  0.63196184  0.71113383  0.23030720     0.05800
C428        C  0.65365844  0.72283328  0.24972015    -0.13900
Br429      Br  0.65136390  0.70648523  0.33587648    -0.06000
Br430      Br  0.74790304  0.81624007  0.30246785    -0.00300
Br431      Br  0.59252169  0.74464144  0.26324021     0.00100
Br432      Br  0.67857955  0.71409493  0.24357119    -0.04300
Br433      Br  0.70288645  0.72727134  0.38076588     0.00200
Br434      Br  0.69924231  0.79264257  0.25127558    -0.03600
Br435      Br  0.64363939  0.77224424  0.30970206    -0.04500
Br436      Br  0.62747817  0.68693572  0.19705476    -0.00500
C437        C  0.56222855  0.61892555  0.16989625     0.00900
C438        C  0.55851559  0.61280676  0.13477352     0.03800
C439        C  0.56701573  0.59814174  0.11986355    -0.12300
C440        C  0.57975293  0.58952811  0.13906662     0.23100
C441        C  0.58228661  0.59415638  0.17415496    -0.12900
C442        C  0.57355605  0.60862913  0.18957236     0.04500
C443        C  0.59356489  0.57911980  0.12119075     0.26900
C444        C  0.58225163  0.55411911  0.11209942    -0.13600
C445        C  0.59537683  0.54530970  0.09321479     0.05000
C446        C  0.61977102  0.56146205  0.08275072    -0.09500
C447        C  0.63115733  0.58629105  0.09266110     0.05800
C448        C  0.61811997  0.59505490  0.11139556    -0.13900
Br449      Br  0.59888977  0.58140798  0.20065607    -0.06000
Br450      Br  0.54228152  0.62445244  0.10524712    -0.00300
Br451      Br  0.58078498  0.51083581  0.08388233     0.00100
Br452      Br  0.63407819  0.62911598  0.12426918    -0.04300
Br453      Br  0.57928284  0.61573233  0.23715071     0.00200
Br454      Br  0.56230789  0.59057558  0.07214315    -0.03600
Br455      Br  0.54902009  0.53191881  0.12630774    -0.04500
Br456      Br  0.66526620  0.60837877  0.08207461    -0.00500
C457        C  0.46815681  0.60795897  0.26709701     0.00900
C458        C  0.44489524  0.59342778  0.25203653     0.03800
C459        C  0.42542471  0.57454918  0.27064474    -0.12300
C460        C  0.42858455  0.57096654  0.30499439     0.23100
C461        C  0.45151547  0.58612061  0.32042215    -0.12900
C462        C  0.47126979  0.60432095  0.30149324     0.04500
C463        C  0.40792997  0.55138456  0.32511458     0.26900
C464        C  0.38869082  0.55466413  0.33707126    -0.13600
C465        C  0.37017502  0.53683887  0.35802372     0.05000
C466        C  0.37134508  0.51617332  0.36857286    -0.09500
C467        C  0.39041391  0.51275219  0.35615251     0.05800
C468        C  0.40821172  0.52994643  0.33382077    -0.13900
Br469      Br  0.45567240  0.58226633  0.36790819    -0.06000
Br470      Br  0.43936873  0.59939964  0.20604741    -0.00300
Br471      Br  0.34298827  0.54061072  0.37223954     0.00100
Br472      Br  0.43361785  0.52460517  0.31585199    -0.04300
Br473      Br  0.50206025  0.62552694  0.32364735     0.00200
Br474      Br  0.39442526  0.55326726  0.24902466    -0.03600
Br475      Br  0.38834771  0.58416774  0.32612906    -0.04500
Br476      Br  0.39383010  0.48587806  0.37169315    -0.00500
C477        C  0.48811159  0.62620331  0.11770466     0.00900
C478        C  0.47827975  0.60147109  0.12707009     0.03800
C479        C  0.46112904  0.58270379  0.10612693    -0.12300
C480        C  0.45308463  0.58857966  0.07632324     0.23100
C481        C  0.46376776  0.61324128  0.06620407    -0.12900
C482        C  0.48206542  0.63193902  0.08617456     0.04500
C483        C  0.43269347  0.56883571  0.05658460     0.26900
C484        C  0.43759416  0.55895651  0.02768041    -0.13600
C485        C  0.41811019  0.53990006  0.00952046     0.05000
C486        C  0.39369389  0.53018923  0.02077941    -0.09500
C487        C  0.38899723  0.53953602  0.05050366     0.05800
C488        C  0.40832329  0.55924792  0.06772685    -0.13900
Br489      Br  0.45213877  0.62147394  0.02621927    -0.06000
Br490      Br  0.48909714  0.59326965  0.16802769    -0.00300
Br491      Br  0.42482760  0.52746954  0.96888959     0.00100
Br492      Br  0.40149545  0.57321822  0.10679011    -0.04300
Br493      Br  0.49883513  0.66522071  0.07027270     0.00200
Br494      Br  0.44807809  0.54888743  0.11860161    -0.03600
Br495      Br  0.47108942  0.57144439  0.01344582    -0.04500
Br496      Br  0.35640576  0.52409169  0.56978476    -0.00500
C497        C  0.23672277  0.27738687  0.08735364     0.00900
C498        C  0.25609170  0.29956733  0.10031775     0.03800
C499        C  0.26487987  0.32158945  0.08181479    -0.12300
C500        C  0.25513691  0.32146672  0.04964681     0.23100
C501        C  0.23516402  0.29961104  0.03749154    -0.12900
C502        C  0.22540443  0.27807755  0.05687195     0.04500
C503        C  0.26654383  0.34388712  0.02789993     0.26900
C504        C  0.25456793  0.35734290  0.02233318    -0.13600
C505        C  0.26563341  0.37851962  0.00187286     0.05000
C506        C  0.28900053  0.38709405  0.48822088    -0.09500
C507        C  0.30061803  0.37320945  0.49287986     0.05800
C508        C  0.28938433  0.35155150  0.01215383    -0.13900
Br509      Br  0.22118883  0.29872249  0.49380293    -0.06000
Br510      Br  0.27160474  0.29988794  0.14232984    -0.00300
Br511      Br  0.24873723  0.39632869  0.49318951     0.00100
Br512      Br  0.30516336  0.33233614  0.01728252    -0.04300
Br513      Br  0.19547614  0.24995316  0.04204638     0.00200
Br514      Br  0.29077997  0.35197436  0.10000242    -0.03600
Br515      Br  0.22356458  0.34749031  0.04405109    -0.04500
Br516      Br  0.33319677  0.38478209  0.47565146    -0.00500
C517        C  0.51002712  0.36396580  0.39067132     0.00900
C518        C  0.53385707  0.36773841  0.39573175     0.03800
C519        C  0.55054645  0.38668494  0.41691606    -0.12300
C520        C  0.54338059  0.40155492  0.43411423     0.23100
C521        C  0.51918927  0.39689385  0.43094915    -0.12900
C522        C  0.50251832  0.37816713  0.40933749     0.04500
C523        C  0.56181041  0.42303808  0.45372767     0.26900
C524        C  0.56734594  0.42021435  0.48725464    -0.13600
C525        C  0.58610450  0.44031518  0.50479480     0.05000
C526        C  0.59936098  0.46342099  0.48894229    -0.09500
C527        C  0.59307744  0.46639249  0.45575355     0.05800
C528        C  0.57449730  0.44620921  0.43817346    -0.13900
Br529      Br  0.50951751  0.41732631  0.45483433    -0.06000
Br530      Br  0.54371715  0.34670432  0.37400644    -0.00300
Br531      Br  0.59301569  0.43632872  0.05108191     0.00100
Br532      Br  0.56696229  0.44991563  0.39208077    -0.04300
Br533      Br  0.47018514  0.37359795  0.40410150     0.00200
Br534      Br  0.58381580  0.39332107  0.42089808    -0.03600
Br535      Br  0.54943547  0.38859961  0.50877176    -0.04500
Br536      Br  0.61075393  0.49764839  0.43319688    -0.00500
C537        C  0.52803745  0.39539551  0.24160158     0.00900
C538        C  0.55232217  0.40634567  0.25421140     0.03800
C539        C  0.57217084  0.42507913  0.23584071    -0.12300
C540        C  0.56825996  0.43262172  0.20415748     0.23100
C541        C  0.54411200  0.42216332  0.19176247    -0.12900
C542        C  0.52409066  0.40383989  0.21041962     0.04500
C543        C  0.58964071  0.45024225  0.18282516     0.26900
C544        C  0.59703448  0.47531217  0.18174032    -0.13600
C545        C  0.61625364  0.49149076  0.15991125     0.05000
C546        C  0.62828982  0.48265159  0.13883795    -0.09500
C547        C  0.62205589  0.45788673  0.14213724     0.05800
C548        C  0.60256492  0.44174268  0.16337054    -0.13900
Br549      Br  0.53872691  0.43226953  0.14818474    -0.06000
Br550      Br  0.55882000  0.39583650  0.29671825    -0.00300
Br551      Br  0.62517241  0.52542538  0.15868128     0.00100
Br552      Br  0.59296759  0.40758427  0.16500951    -0.04300
Br553      Br  0.49162609  0.38903166  0.19127006     0.00200
Br554      Br  0.60505695  0.44034580  0.25365518    -0.03600
Br555      Br  0.58024420  0.48723388  0.20975669    -0.04500
Br556      Br  0.64101390  0.44606042  0.11884065    -0.00500
C557        C  0.28241528  0.22452398  0.15420032     0.00900
C558        C  0.30395110  0.24669569  0.14636168     0.03800
C559        C  0.32486517  0.25541666  0.16722396    -0.12300
C560        C  0.32425196  0.24218051  0.19632119     0.23100
C561        C  0.30337097  0.21911457  0.20258355    -0.12900
C562        C  0.28283467  0.21012807  0.18112571     0.04500
C563        C  0.34457000  0.25355626  0.22164545     0.26900
C564        C  0.36346690  0.24781915  0.22216065    -0.13600
C565        C  0.38353900  0.26033469  0.24429821     0.05000
C566        C  0.38552196  0.27947600  0.26474500    -0.09500
C567        C  0.36582965  0.28396982  0.26607241     0.05800
C568        C  0.34526814  0.27081258  0.24493660    -0.13900
Br569      Br  0.30205635  0.20078513  0.24221113    -0.06000
Br570      Br  0.30408041  0.26597516  0.10867165    -0.00300
Br571      Br  0.40849617  0.25135707  0.24722611     0.00100
Br572      Br  0.31830219  0.27696953  0.24689079    -0.04300
Br573      Br  0.25480598  0.17813190  0.18888976     0.00200
Br574      Br  0.35386046  0.28639802  0.15746922    -0.03600
Br575      Br  0.36253714  0.22379089  0.19139317    -0.04500
Br576      Br  0.36749382  0.30887891  0.29572506    -0.00500
C577        C  0.42888770  0.37172384  0.33718181     0.00900
C578        C  0.41241956  0.36203795  0.36513182     0.03800
C579        C  0.40562145  0.37677313  0.38331140    -0.12300
C580        C  0.41393665  0.40097098  0.37312954     0.23100
C581        C  0.42965710  0.41061052  0.34483064    -0.12900
C582        C  0.43741078  0.39619168  0.32715418     0.04500
C583        C  0.40260771  0.41422313  0.38932791     0.26900
C584        C  0.37882514  0.40790491  0.37942407    -0.13600
C585        C  0.36530635  0.41579661  0.39837837     0.05000
C586        C  0.37610881  0.43212102  0.42614841    -0.09500
C587        C  0.40023926  0.43884347  0.43571654     0.05800
C588        C  0.41325772  0.42952091  0.41769878    -0.13900
Br589      Br  0.44014570  0.44347452  0.33017038    -0.06000
Br590      Br  0.39742930  0.32801555  0.37841128    -0.00300
Br591      Br  0.33105330  0.40182485  0.38693000     0.00100
Br592      Br  0.44557234  0.43731070  0.43172788    -0.04300
Br593      Br  0.46025661  0.41043141  0.29008382     0.00200
Br594      Br  0.38387274  0.36352955  0.42196769    -0.03600
Br595      Br  0.36435358  0.38738263  0.34006668    -0.04500
Br596      Br  0.41558954  0.46098658  0.47283109    -0.00500
C597        C  0.56667432  0.94899301  0.42267831     0.00900
C598        C  0.54861961  0.95204850  0.40639109     0.03800
C599        C  0.55550542  0.97110481  0.38268827    -0.12300
C600        C  0.58057309  0.98847433  0.37725530     0.23100
C601        C  0.59855737  0.98647992  0.39582996    -0.12900
C602        C  0.59165630  0.96638232  0.41753083     0.04500
C603        C  0.58832945  0.00910198  0.35269566     0.26900
C604        C  0.60055913  0.00978378  0.32228762    -0.13600
C605        C  0.61239957  0.03148483  0.30283780     0.05000
C606        C  0.61153027  0.05230013  0.31332421    -0.09500
C607        C  0.59581629  0.05006566  0.34013372     0.05800
C608        C  0.58517568  0.02906187  0.36076274    -0.13900
Br609      Br  0.63281073  0.01102095  0.39095897    -0.06000
Br610      Br  0.51443061  0.92922578  0.41563762    -0.00300
Br611      Br  0.63036763  0.03300507  0.26256091     0.00100
Br612      Br  0.56820825  0.02869839  0.40157581    -0.04300
Br613      Br  0.61648690  0.96188452  0.43895128     0.00200
Br614      Br  0.53067700  0.97224896  0.35592215    -0.03600
Br615      Br  0.60224800  0.98146563  0.30836661    -0.04500
Br616      Br  0.58804504  0.07551125  0.34707317    -0.00500
C617        C  0.53348483  0.73297526  0.14229541     0.00900
C618        C  0.51308067  0.73007121  0.12329285     0.03800
C619        C  0.51480480  0.74981647  0.10471203    -0.12300
C620        C  0.53560450  0.77328223  0.10764938     0.23100
C621        C  0.55539962  0.77673303  0.12785484    -0.12900
C622        C  0.55475071  0.75661340  0.14425539     0.04500
C623        C  0.53667221  0.79387665  0.08809526     0.26900
C624        C  0.54955721  0.80095102  0.05723637    -0.13600
C625        C  0.54746147  0.81755532  0.03602252     0.05000
C626        C  0.53158947  0.82636014  0.04462712    -0.09500
C627        C  0.51960541  0.82026420  0.07622335     0.05800
C628        C  0.52253596  0.80438965  0.09821816    -0.13900
Br629      Br  0.58349153  0.80919642  0.13272249    -0.06000
Br630      Br  0.48218984  0.69949855  0.12185349    -0.00300
Br631      Br  0.56680202  0.82860926  0.49522495     0.00100
Br632      Br  0.50644123  0.79611951  0.14167857    -0.04300
Br633      Br  0.58297583  0.76229850  0.17030661     0.00200
Br634      Br  0.48910903  0.74456258  0.07340897    -0.03600
Br635      Br  0.56889912  0.78671050  0.04295786    -0.04500
Br636      Br  0.49770801  0.83197402  0.08815648    -0.00500
C637        C  0.52583566  0.71020912  0.29289838     0.00900
C638        C  0.54127787  0.71571385  0.32166213     0.03800
C639        C  0.54459390  0.73441269  0.34441082    -0.12300
C640        C  0.53205579  0.74727632  0.33974219     0.23100
C641        C  0.51552616  0.74095628  0.31282767    -0.12900
C642        C  0.51227189  0.72263841  0.28959590     0.04500
C643        C  0.53627002  0.76780667  0.36269183     0.26900
C644        C  0.52125464  0.76333584  0.39129983    -0.13600
C645        C  0.52331200  0.78301646  0.41063793     0.05000
C646        C  0.53954327  0.80752633  0.40046836    -0.09500
C647        C  0.55518805  0.81188663  0.37233628     0.05800
C648        C  0.55386715  0.79207614  0.35409862    -0.13900
Br649      Br  0.49738034  0.75794170  0.30792877    -0.06000
Br650      Br  0.55854388  0.69842320  0.33101386    -0.00300
Br651      Br  0.50406961  0.77598172  0.45153374     0.00100
Br652      Br  0.57546242  0.79800491  0.31614982    -0.04300
Br653      Br  0.48802080  0.71478895  0.25455541     0.00200
Br654      Br  0.56689313  0.74313808  0.38193674    -0.03600
Br655      Br  0.49696239  0.73012120  0.40290341    -0.04500
Br656      Br  0.57689997  0.84471466  0.35618566    -0.00500
C657        C  0.80351277  0.86722810  0.43296121     0.00900
C658        C  0.82165399  0.88119790  0.45744163     0.03800
C659        C  0.82019041  0.89935100  0.47608847    -0.12300
C660        C  0.80130371  0.90443586  0.46975747     0.23100
C661        C  0.78421227  0.89180012  0.44397348    -0.12900
C662        C  0.78549949  0.87349479  0.42527823     0.04500
C663        C  0.79955908  0.92294729  0.99073722     0.26900
C664        C  0.78667694  0.91572673  0.02160179    -0.13600
C665        C  0.78887114  0.93350466  0.04487081     0.05000
C666        C  0.80400804  0.95865093  0.03742879    -0.09500
C667        C  0.81535817  0.96585501  0.00546611     0.05800
C668        C  0.81333161  0.94796608  0.48249831    -0.13900
Br669      Br  0.75877036  0.89933264  0.43492515    -0.06000
Br670      Br  0.84881785  0.87607365  0.46635504    -0.00300
Br671      Br  0.77142447  0.92330359  0.08739999     0.00100
Br672      Br  0.83096931  0.95771959  0.44021544    -0.04300
Br673      Br  0.76390848  0.85863273  0.38724458     0.00200
Br674      Br  0.84363148  0.91695430  0.01127823    -0.03600
Br675      Br  0.76745092  0.88142211  0.03293224    -0.04500
Br676      Br  0.83525900  0.00008363  0.99445319    -0.00500
C677        C  0.81568412  0.84466026  0.28544114     0.00900
C678        C  0.80107546  0.83501864  0.25597394     0.03800
C679        C  0.79876769  0.85088420  0.23315290    -0.12300
C680        C  0.81149385  0.87628938  0.23890346     0.23100
C681        C  0.82804229  0.88610418  0.26584726    -0.12900
C682        C  0.83082186  0.87056250  0.28833581     0.04500
C683        C  0.80756433  0.89311042  0.21719533     0.26900
C684        C  0.82286444  0.90440140  0.18910952    -0.13600
C685        C  0.82167428  0.92310948  0.17155245     0.05000
C686        C  0.80559977  0.93124776  0.18271851    -0.09500
C687        C  0.78968689  0.91920009  0.21044945     0.05800
C688        C  0.79062105  0.90011984  0.22733809    -0.13900
Br689      Br  0.84629783  0.92118131  0.27259071    -0.06000
Br690      Br  0.78405825  0.80044200  0.24575251    -0.00300
Br691      Br  0.84208459  0.93701240  0.13193873     0.00100
Br692      Br  0.76987234  0.88450438  0.26617469    -0.04300
Br693      Br  0.85690332  0.88578568  0.32134481     0.00200
Br694      Br  0.77740318  0.83797425  0.19456648    -0.03600
Br695      Br  0.84653103  0.89507274  0.17615392    -0.04500
Br696      Br  0.76795833  0.92977759  0.22803056    -0.00500
C697        C  0.77184196  0.04195381  0.17193393     0.00900
C698        C  0.77717536  0.04997768  0.20603105     0.03800
C699        C  0.76683186  0.06297551  0.22093620    -0.12300
C700        C  0.74763715  0.06414568  0.20471571     0.23100
C701        C  0.74038769  0.05385926  0.17213451    -0.12900
C702        C  0.75327784  0.04407813  0.15515698     0.04500
C703        C  0.73480754  0.07572538  0.22204964     0.26900
C704        C  0.71960770  0.06463379  0.25056182    -0.13600
C705        C  0.70770497  0.07578450  0.26678395     0.05000
C706        C  0.70888841  0.09693018  0.25275025    -0.09500
C707        C  0.72346775  0.10738684  0.22336164     0.05800
C708        C  0.73738157  0.09769241  0.20947228    -0.13900
Br709      Br  0.71160973  0.05157988  0.15170889    -0.06000
Br710      Br  0.79597074  0.04095353  0.23471916    -0.00300
Br711      Br  0.68851545  0.06086032  0.30700055     0.00100
Br712      Br  0.76018773  0.11459191  0.17294253    -0.04300
Br713      Br  0.74326070  0.03081792  0.11029685     0.00200
Br714      Br  0.77907305  0.07930073  0.26373678    -0.03600
Br715      Br  0.71383152  0.03326223  0.26615616    -0.04500
Br716      Br  0.72411271  0.13449229  0.20047197    -0.00500
C717        C  0.61484445  0.90677026  0.49792250     0.00900
C718        C  0.62247187  0.92534360  0.02295649     0.03800
C719        C  0.64366538  0.93239470  0.04238348    -0.12300
C720        C  0.65763585  0.92096448  0.03760570     0.23100
C721        C  0.65057763  0.90287624  0.01227864    -0.12900
C722        C  0.62981432  0.89647131  0.49165748     0.04500
C723        C  0.68163650  0.93072211  0.05563319     0.26900
C724        C  0.70343807  0.94606538  0.03802396    -0.13600
C725        C  0.72622219  0.95643678  0.05446540     0.05000
C726        C  0.72759855  0.95435175  0.09026740    -0.09500
C727        C  0.70547799  0.93865932  0.10792708     0.05800
C728        C  0.68281979  0.92626201  0.09035083    -0.13900
Br729      Br  0.66939753  0.88692476  0.50579253    -0.06000
Br730      Br  0.60504173  0.94292026  0.02953288    -0.00300
Br731      Br  0.75499800  0.97214603  0.02573311     0.00100
Br732      Br  0.65306888  0.90346116  0.11376459    -0.04300
Br733      Br  0.62285232  0.87428435  0.45440887     0.00200
Br734      Br  0.65413734  0.95852829  0.07502303    -0.03600
Br735      Br  0.70194521  0.95410280  0.99118858    -0.04500
Br736      Br  0.70532130  0.93473196  0.15625355    -0.00500
C737        C  0.51244958  0.14887400  0.13910993     0.00900
C738        C  0.50457548  0.12758440  0.15883228     0.03800
C739        C  0.52126625  0.12570888  0.18033703    -0.12300
C740        C  0.54553052  0.14535552  0.18311699     0.23100
C741        C  0.55251114  0.16759942  0.16653576    -0.12900
C742        C  0.53602443  0.16936126  0.14454718     0.04500
C743        C  0.56427198  0.14181279  0.20061465     0.26900
C744        C  0.56975068  0.14808034  0.23484035    -0.13600
C745        C  0.58820233  0.14541296  0.25072147     0.05000
C746        C  0.60092665  0.13590179  0.23259549    -0.09500
C747        C  0.59453325  0.12861496  0.19862637     0.05800
C748        C  0.57665724  0.13207656  0.18256669    -0.13900
Br749      Br  0.58514621  0.19517931  0.17259898    -0.06000
Br750      Br  0.47158655  0.10032346  0.15539755    -0.00300
Br751      Br  0.59523505  0.15408573  0.29771483     0.00100
Br752      Br  0.56961172  0.12435595  0.13524078    -0.04300
Br753      Br  0.54574833  0.19995341  0.12188822     0.00200
Br754      Br  0.51155990  0.09562818  0.20430398    -0.03600
Br755      Br  0.55200318  0.16052856  0.25967387    -0.04500
Br756      Br  0.61077092  0.11482176  0.17317096    -0.00500
C757        C  0.53194012  0.13062058  0.49019853     0.00900
C758        C  0.52832062  0.12119612  0.45700532     0.03800
C759        C  0.54772171  0.12123039  0.43920221    -0.12300
C760        C  0.57119501  0.13152817  0.45379485     0.23100
C761        C  0.57479967  0.14056065  0.48713020    -0.12900
C762        C  0.55523628  0.14005426  0.50532084     0.04500
C763        C  0.59242361  0.13516968  0.43259450     0.26900
C764        C  0.59985999  0.11759570  0.43185550    -0.13600
C765        C  0.61859841  0.12036371  0.40941304     0.05000
C766        C  0.62864364  0.13983804  0.38568414    -0.09500
C767        C  0.62323097  0.15885457  0.38957094     0.05800
C768        C  0.60493149  0.15630743  0.41242838    -0.13900
Br769      Br  0.60685277  0.15437335  0.50724915    -0.06000
Br770      Br  0.49767534  0.11077502  0.43413392    -0.00300
Br771      Br  0.63072873  0.09789261  0.41274515     0.00100
Br772      Br  0.59638702  0.18153772  0.41555474    -0.04300
Br773      Br  0.56047354  0.15260254  0.55081446     0.00200
Br774      Br  0.54251329  0.10800047  0.39405906    -0.03600
Br775      Br  0.58350144  0.08920451  0.46063518    -0.04500
Br776      Br  0.64270212  0.18969698  0.36644956    -0.00500
C777        C  0.46186300  0.26179620  0.35219804     0.00900
C778        C  0.45432735  0.25595101  0.38624090     0.03800
C779        C  0.45545780  0.23673058  0.40240072    -0.12300
C780        C  0.46402195  0.22316141  0.38469943     0.23100
C781        C  0.46982422  0.22778993  0.35008403    -0.12900
C782        C  0.46893964  0.24718536  0.33392794     0.04500
C783        C  0.46953525  0.20619582  0.40369621     0.26900
C784        C  0.49185573  0.21586487  0.42128751    -0.13600
C785        C  0.49602796  0.20096602  0.44338976     0.05000
C786        C  0.47782158  0.17608142  0.44817099    -0.09500
C787        C  0.45664515  0.16580298  0.42747224     0.05800
C788        C  0.45226186  0.18100392  0.40602323    -0.13900
Br789      Br  0.47936773  0.20775081  0.32512733    -0.06000
Br790      Br  0.44408298  0.27526024  0.41176187    -0.00300
Br791      Br  0.52719623  0.21490898  0.46641604     0.00100
Br792      Br  0.42193753  0.16771518  0.38126726    -0.04300
Br793      Br  0.47716854  0.25357973  0.28666009     0.00200
Br794      Br  0.44619500  0.22943204  0.44936626    -0.03600
Br795      Br  0.51631958  0.25005181  0.41612542    -0.04500
Br796      Br  0.43287797  0.13111821  0.92862843    -0.00500
C797        C  0.47704820  0.29699522  0.20288600     0.00900
C798        C  0.49685961  0.29255430  0.20000367     0.03800
C799        C  0.49581581  0.27525740  0.17673493    -0.12300
C800        C  0.47522510  0.26251425  0.15578275     0.23100
C801        C  0.45641171  0.26828219  0.15653614    -0.12900
C802        C  0.45755065  0.28591978  0.17942387     0.04500
C803        C  0.47254856  0.24177606  0.13494225     0.26900
C804        C  0.48321205  0.24582140  0.10253827    -0.13600
C805        C  0.48183236  0.22613566  0.08398088     0.05000
C806        C  0.46911944  0.20216362  0.09739614    -0.09500
C807        C  0.45758631  0.19810974  0.12939511     0.05800
C808        C  0.45983387  0.21793345  0.14833472    -0.13900
Br809      Br  0.42836378  0.25075001  0.12742668    -0.06000
Br810      Br  0.52613666  0.31075053  0.22690412    -0.00300
Br811      Br  0.49691384  0.23205078  0.03988149     0.00100
Br812      Br  0.44657496  0.21271994  0.19364132    -0.04300
Br813      Br  0.43196413  0.29407760  0.17849991     0.00200
Br814      Br  0.52204352  0.26797228  0.17465546    -0.03600
Br815      Br  0.50007823  0.27849124  0.08408730    -0.04500
Br816      Br  0.43970755  0.16574111  0.14885848    -0.00500
C817        C  0.27950705  0.04744499  0.41234030     0.00900
C818        C  0.28038078  0.05471664  0.44669072     0.03800
C819        C  0.30297073  0.06933609  0.46307636    -0.12300
C820        C  0.32514827  0.07669209  0.44607870     0.23100
C821        C  0.32471044  0.07089986  0.41160438    -0.12900
C822        C  0.30209265  0.05598240  0.39491932     0.04500
C823        C  0.34817627  0.08640173  0.46626531     0.26900
C824        C  0.36390422  0.11174946  0.47154082    -0.13600
C825        C  0.38503847  0.12018278  0.49189890     0.05000
C826        C  0.39020994  0.10335666  0.00769161    -0.09500
C827        C  0.37395080  0.07810269  0.00344085     0.05800
C828        C  0.35322087  0.06962674  0.48255582    -0.13900
Br829      Br  0.35540913  0.08297606  0.38779584    -0.06000
Br830      Br  0.25118888  0.04421180  0.47345967    -0.00300
Br831      Br  0.40731099  0.15485942  0.99815935     0.00100
Br832      Br  0.33148738  0.03491038  0.47643563    -0.04300
Br833      Br  0.30270793  0.04483050  0.34981197     0.00200
Br834      Br  0.30387792  0.07884097  0.00989907    -0.03600
Br835      Br  0.35649239  0.13475258  0.45078379    -0.04500
Br836      Br  0.38041109  0.05491518  0.02586994    -0.00500
C837        C  0.19646356  0.03930817  0.46470578     0.00900
C838        C  0.21011826  0.06465106  0.45742966     0.03800
C839        C  0.21088635  0.08177838  0.48072938    -0.12300
C840        C  0.19848251  0.07386945  0.51184106     0.23100
C841        C  0.18641908  0.04879037  0.52031998    -0.12900
C842        C  0.18570978  0.03154010  0.49698322     0.04500
C843        C  0.19733631  0.09208452  0.03451601     0.26900
C844        C  0.21659385  0.10637523  0.05699294    -0.13600
C845        C  0.21673902  0.12567796  0.07507840     0.05000
C846        C  0.19730316  0.13050706  0.07131262    -0.09500
C847        C  0.17715884  0.11494061  0.05044893     0.05800
C848        C  0.17764064  0.09639700  0.03135810    -0.13900
Br849      Br  0.17066232  0.03828757  0.06373209    -0.06000
Br850      Br  0.22937689  0.07624678  0.41643873    -0.00300
Br851      Br  0.24318360  0.14477584  0.10597159     0.00100
Br852      Br  0.15214810  0.07808887  0.49850929    -0.04300
Br853      Br  0.16977892  0.99745997  0.50926019     0.00200
Br854      Br  0.22823164  0.11619266  0.46959383    -0.03600
Br855      Br  0.24318502  0.09990383  0.06186836    -0.04500
Br856      Br  0.14898042  0.11910609  0.04650477    -0.00500
C857        C  0.19397841  0.15645011  0.22323244     0.00900
C858        C  0.17765901  0.13069521  0.22302681     0.03800
C859        C  0.18143041  0.11560261  0.24506082    -0.12300
C860        C  0.20066816  0.12595183  0.26851348     0.23100
C861        C  0.21489821  0.15150940  0.27191702    -0.12900
C862        C  0.21127460  0.16686597  0.24985095     0.04500
C863        C  0.20535616  0.10948992  0.28965153     0.26900
C864        C  0.19157741  0.09942975  0.31926728    -0.13600
C865        C  0.19194108  0.07990841  0.33555581     0.05000
C866        C  0.20643815  0.07050852  0.32241149    -0.09500
C867        C  0.22189180  0.08215320  0.29417830     0.05800
C868        C  0.22112072  0.10145920  0.27773750    -0.13900
Br869      Br  0.23987350  0.16521633  0.30625250    -0.06000
Br870      Br  0.14895905  0.11535302  0.19427627    -0.00300
Br871      Br  0.17233803  0.06636952  0.37585370     0.00100
Br872      Br  0.24046027  0.11606296  0.23746142    -0.04300
Br873      Br  0.23033764  0.20180779  0.25693360     0.00200
Br874      Br  0.16058418  0.08040816  0.24255614    -0.03600
Br875      Br  0.17122015  0.11180130  0.33627694    -0.04500
Br876      Br  0.24276555  0.07081722  0.27569461    -0.00500
C877        C  0.36948021  0.85339154  0.11670001     0.00900
C878        C  0.38199681  0.87442095  0.09604235     0.03800
C879        C  0.40047184  0.87680117  0.07348861    -0.12300
C880        C  0.40629383  0.85809880  0.07095215     0.23100
C881        C  0.39239993  0.83625986  0.08933366    -0.12900
C882        C  0.37402128  0.83384844  0.11196591     0.04500
C883        C  0.42804518  0.86204408  0.05081223     0.26900
C884        C  0.42526029  0.85289658  0.01766831    -0.13600
C885        C  0.44586497  0.85604787  0.99928979     0.05000
C886        C  0.46947238  0.86830531  0.01397435    -0.09500
C887        C  0.47230738  0.87820516  0.04684308     0.05800
C888        C  0.45163643  0.87482210  0.06523795    -0.13900
Br889      Br  0.39931986  0.80999898  0.08448453    -0.06000
Br890      Br  0.37519154  0.90075808  0.09957194    -0.00300
Br891      Br  0.44151660  0.84372575  0.45343152    -0.03500
Br892      Br  0.45536059  0.88677505  0.11102411    -0.04300
Br893      Br  0.35484267  0.80340523  0.13615555     0.00200
Br894      Br  0.41884027  0.90623136  0.04707007    -0.03600
Br895      Br  0.39302255  0.83554522  0.99784393    -0.04500
Br896      Br  0.50418153  0.89539381  0.06789642    -0.00500
C897        C  0.49411949  0.86222428  0.36156365     0.00900
C898        C  0.50312325  0.88347108  0.34123793     0.03800
C899        C  0.48705282  0.88638239  0.31956915    -0.12300
C900        C  0.46237120  0.86763084  0.31672445     0.23100
C901        C  0.45418516  0.84536519  0.33390702    -0.12900
C902        C  0.46999667  0.84259236  0.35604023     0.04500
C903        C  0.44444466  0.87151747  0.29739146     0.26900
C904        C  0.43010769  0.87944469  0.31454258    -0.13600
C905        C  0.41053599  0.87964770  0.29794003     0.05000
C906        C  0.40541539  0.87223368  0.26384845    -0.09500
C907        C  0.42074278  0.86579598  0.24610541     0.05800
C908        C  0.44016735  0.86534567  0.26288293    -0.13900
Br909      Br  0.42082212  0.81898154  0.32804035    -0.06000
Br910      Br  0.53716785  0.90875857  0.34262776    -0.00300
Br911      Br  0.38960526  0.88811832  0.32304957     0.00100
Br912      Br  0.46041203  0.85545638  0.23907030    -0.04300
Br913      Br  0.45881318  0.81128722  0.37744969     0.00200
Br914      Br  0.49828972  0.91649681  0.29496986    -0.03600
Br915      Br  0.43672869  0.88897433  0.36141061    -0.04500
Br916      Br  0.41511341  0.85769296  0.19875993    -0.00500
C917        C  0.29004936  0.89578932  0.25149912     0.00900
C918        C  0.29999920  0.91257689  0.27883200     0.03800
C919        C  0.28571950  0.92048945  0.29599614    -0.12300
C920        C  0.26178246  0.91303687  0.28518855     0.23100
C921        C  0.25181362  0.89674197  0.25765571    -0.12900
C922        C  0.26578044  0.88793854  0.24103584     0.04500
C923        C  0.24924399  0.92568685  0.29976500     0.26900
C924        C  0.23557381  0.91758585  0.33000891    -0.13600
C925        C  0.22726505  0.93201908  0.34643438     0.05000
C926        C  0.23338587  0.95533755  0.33333590    -0.09500
C927        C  0.24819125  0.96362978  0.30343186     0.05800
C928        C  0.25494387  0.94843257  0.28623628    -0.13900
Br929      Br  0.21912744  0.88690267  0.24262737    -0.06000
Br930      Br  0.33409021  0.92711785  0.29161394    -0.00300
Br931      Br  0.20812472  0.91947854  0.38717997     0.00100
Br932      Br  0.27357001  0.95933687  0.24451787    -0.04300
Br933      Br  0.25141303  0.86490565  0.20446294     0.00200
Br934      Br  0.29930435  0.94256596  0.33399933    -0.03600
Br935      Br  0.22923760  0.88700348  0.34946264    -0.04500
Br936      Br  0.26262488  0.99690226  0.28687885    -0.00500
C937        C  0.43163711  0.05825926  0.08938583     0.00900
C938        C  0.41217226  0.05072487  0.11321785     0.03800
C939        C  0.40343337  0.02875760  0.13146508    -0.12300
C940        C  0.41288038  0.01320053  0.12511098     0.23100
C941        C  0.43208888  0.02042646  0.10137751    -0.12900
C942        C  0.44197711  0.04319965  0.08444010     0.04500
C943        C  0.40081637  0.98843513  0.14139068     0.26900
C944        C  0.41119123  0.98351733  0.16972998    -0.13600
C945        C  0.39857867  0.96044051  0.18607988     0.05000
C946        C  0.37483845  0.94255057  0.17538863    -0.09500
C947        C  0.36428056  0.94799991  0.14742698     0.05800
C948        C  0.37758883  0.97030465  0.12991330    -0.13900
Br949      Br  0.44436468  0.99872332  0.09151387    -0.06000
Br950      Br  0.39610435  0.06952727  0.12064213    -0.00300
Br951      Br  0.41452720  0.95297523  0.22164625     0.00100
Br952      Br  0.36388443  0.97626953  0.08985391    -0.04300
Br953      Br  0.47088823  0.05445735  0.05671527     0.00200
Br954      Br  0.37788423  0.01948868  0.16510008    -0.03600
Br955      Br  0.44261403  0.00858682  0.18625542    -0.04500
Br956      Br  0.33083043  0.92589066  0.13338755    -0.00500
C957        C  0.86350208  0.79507555  0.32468047     0.00900
C958        C  0.85978966  0.78524973  0.29169813     0.03800
C959        C  0.87993354  0.78847603  0.27217611    -0.12300
C960        C  0.90375703  0.80042728  0.28592145     0.23100
C961        C  0.90733921  0.80910637  0.31939562    -0.12900
C962        C  0.88737052  0.80672090  0.33859299     0.04500
C963        C  0.92511936  0.80524101  0.26422412     0.26900
C964        C  0.93221379  0.78754048  0.26076065    -0.13600
C965        C  0.95087534  0.79119072  0.23761006     0.05000
C966        C  0.96225462  0.81247257  0.21707561    -0.09500
C967        C  0.95584199  0.83074734  0.22210120     0.05800
C968        C  0.93754745  0.82717184  0.24571199    -0.13900
Br969      Br  0.93995356  0.82548893  0.33813289    -0.06000
Br970      Br  0.82749751  0.76899636  0.27177745    -0.00300
Br971      Br  0.95940905  0.76608663  0.23334070     0.00100
Br972      Br  0.92898272  0.85216803  0.25250450    -0.04300
Br973      Br  0.89293513  0.81965236  0.38393584     0.00200
Br974      Br  0.87527695  0.77836183  0.22546018    -0.03600
Br975      Br  0.91562204  0.75791361  0.28726242    -0.04500
Br976      Br  0.97221169  0.86117141  0.19722385    -0.00500
C977        C  0.93227517  0.80393286  0.07049978     0.00900
C978        C  0.90843028  0.78477818  0.07899221     0.03800
C979        C  0.88770408  0.78314867  0.06305741    -0.12300
C980        C  0.89064553  0.80055950  0.03862065     0.23100
C981        C  0.91418713  0.82031422  0.03129450    -0.12900
C982        C  0.93490307  0.82228726  0.04744555     0.04500
C983        C  0.86959280  0.79734427  0.51813258     0.26900
C984        C  0.86459844  0.78469815  0.48728268    -0.13600
C985        C  0.84793354  0.78534188  0.46456985     0.05000
C986        C  0.83679832  0.79932993  0.47206996    -0.09500
C987        C  0.83932074  0.80926081  0.50471357     0.05800
C988        C  0.85609995  0.80865196  0.02756089    -0.13900
Br989      Br  0.91800103  0.84425333  0.99783472    -0.06000
Br990      Br  0.90379961  0.76157374  0.11390131    -0.00300
Br991      Br  0.83952650  0.76612921  0.42369951     0.00100
Br992      Br  0.86184636  0.82450967  0.07087105    -0.04300
Br993      Br  0.96667153  0.85015495  0.03653536     0.00200
Br994      Br  0.85516081  0.75697002  0.07416302    -0.03600
Br995      Br  0.88186851  0.76782201  0.47528901    -0.04500
Br996      Br  0.82019251  0.82382097  0.01817046    -0.00500
C997        C  0.03884192  0.84951978  0.03408090     0.00900
C998        C  0.03275522  0.84906772  0.99957976     0.03800
C999        C  0.05104818  0.86373806  0.47556592    -0.12300
C1000       C  0.07581806  0.87803538  0.98598292     0.23100
C1001       C  0.08224621  0.87668081  0.01945637    -0.12900
C1002       C  0.06392194  0.86307770  0.04351822     0.04500
C1003       C  0.09426944  0.89756157  0.46327696     0.26900
C1004       C  0.10874853  0.89293880  0.44072054    -0.13600
C1005       C  0.12797648  0.91239594  0.42247541     0.05000
C1006       C  0.13318877  0.93674374  0.42723575    -0.09500
C1007       C  0.11720806  0.94084396  0.44812711     0.05800
C1008       C  0.09837131  0.92144480  0.46658127    -0.13900
Br1009     Br  0.11643062  0.89466369  0.03246320    -0.06000
Br1010     Br  0.99930385  0.82953720  0.98460269    -0.00300
Br1011     Br  0.14542450  0.90508853  0.38874867     0.00100
Br1012     Br  0.07903413  0.92771829  0.99886882    -0.04300
Br1013     Br  0.07403893  0.86350724  0.08933840     0.00200
Br1014     Br  0.04249343  0.86534231  0.42932045    -0.03600
Br1015     Br  0.10252705  0.85998758  0.43567540    -0.04500
Br1016     Br  0.12011167  0.97266197  0.45239495    -0.00500
C1017       C  0.15501556  0.96903304  0.27985116     0.00900
C1018       C  0.16359170  0.95898386  0.25497091     0.03800
C1019       C  0.14703508  0.94156311  0.23169328    -0.12300
C1020       C  0.12174799  0.93330926  0.23384847     0.23100
C1021       C  0.11325719  0.94388541  0.25758043    -0.12900
C1022       C  0.12979488  0.96215913  0.27967402     0.04500
C1023       C  0.10362958  0.91232708  0.21303319     0.26900
C1024       C  0.09221543  0.91631720  0.18527183    -0.13600
C1025       C  0.07267245  0.89635807  0.16852355     0.05000
C1026       C  0.06462274  0.87201250  0.17908611    -0.09500
C1027       C  0.07665480  0.86815194  0.20650597     0.05800
C1028       C  0.09595817  0.88823030  0.22337181    -0.13900
Br1029     Br  0.07846876  0.93218693  0.26103093    -0.06000
Br1030     Br  0.19739670  0.96711533  0.25383818    -0.00300
Br1031     Br  0.05720088  0.90307511  0.13128346     0.00100
Br1032     Br  0.11102263  0.88288745  0.26232381    -0.04300
Br1033     Br  0.11718314  0.97773599  0.30910803     0.00200
Br1034     Br  0.15863344  0.92802593  0.19752223    -0.03600
Br1035     Br  0.10286210  0.94941437  0.17118069    -0.04500
Br1036     Br  0.06550051  0.83565449  0.22379752    -0.00500
C1037       C  0.10835830  0.72411566  0.49601794     0.00900
C1038       C  0.10094596  0.73751602  0.47537727     0.03800
C1039       C  0.08960997  0.74980186  0.49007820    -0.12300
C1040       C  0.08547920  0.74868762  0.02523427     0.23100
C1041       C  0.09429163  0.73689186  0.04592753    -0.12900
C1042       C  0.10626243  0.72539532  0.03172029     0.04500
C1043       C  0.07108305  0.75876550  0.04142444     0.26900
C1044       C  0.08331355  0.78163511  0.05787241    -0.13600
C1045       C  0.07031930  0.78879274  0.07974302     0.05000
C1046       C  0.04474424  0.77368547  0.08394536    -0.09500
C1047       C  0.03257697  0.75073223  0.06743416     0.05800
C1048       C  0.04565325  0.74334290  0.04633806    -0.13900
Br1049     Br  0.08847744  0.73527909  0.09423794    -0.06000
Br1050     Br  0.10509452  0.73842982  0.42701717    -0.00300
Br1051     Br  0.08778607  0.81873435  0.10469483     0.00100
Br1052     Br  0.02884958  0.71170177  0.02470444    -0.04300
Br1053     Br  0.11985449  0.71195961  0.06289130     0.00200
Br1054     Br  0.07862825  0.76728809  0.46215051    -0.03600
Br1055     Br  0.11800191  0.80294468  0.05031454    -0.04500
Br1056     Br  0.99796416  0.72859096  0.07519863    -0.00500
C1057       C  0.27014113  0.79923680  0.15787022     0.00900
C1058       C  0.24688117  0.78722244  0.17357509     0.03800
C1059       C  0.22632534  0.76904476  0.15592854    -0.12300
C1060       C  0.22925970  0.76198087  0.12322481     0.23100
C1061       C  0.25268936  0.77356105  0.10799352    -0.12900
C1062       C  0.27279020  0.79272640  0.12469802     0.04500
C1063       C  0.20785071  0.74344225  0.10358547     0.26900
C1064       C  0.19795842  0.71819668  0.10963234    -0.13600
C1065       C  0.18046628  0.70083912  0.08728799     0.05000
C1066       C  0.17397691  0.70875039  0.05792945    -0.09500
C1067       C  0.18334787  0.73393428  0.05243709     0.05800
C1068       C  0.19942209  0.75114818  0.07594187    -0.13900
Br1069     Br  0.25725157  0.76339189  0.06377472    -0.06000
Br1070     Br  0.24335830  0.79550556  0.21931123    -0.00300
Br1071     Br  0.16675398  0.66631227  0.09539887     0.00100
Br1072     Br  0.21104935  0.78551472  0.06933953    -0.04300
Br1073     Br  0.30328184  0.81141256  0.10049486     0.00200
Br1074     Br  0.19405934  0.75440834  0.17587450    -0.03600
Br1075     Br  0.20978538  0.70750186  0.14692596    -0.04500
Br1076     Br  0.17516335  0.74493418  0.51190746    -0.00500
C1077       C  0.20673276  0.72918948  0.40845999     0.00900
C1078       C  0.20444543  0.73790794  0.37651059     0.03800
C1079       C  0.22547869  0.75511220  0.35857361    -0.12300
C1080       C  0.24904963  0.76390506  0.37215659     0.23100
C1081       C  0.25151445  0.75520494  0.40379650    -0.12900
C1082       C  0.23048051  0.73800742  0.42197826     0.04500
C1083       C  0.27100809  0.78239237  0.35279755     0.26900
C1084       C  0.28242951  0.77476329  0.32908699    -0.13600
C1085       C  0.30096800  0.79198489  0.30764389     0.05000
C1086       C  0.30672059  0.81671654  0.30746360    -0.09500
C1087       C  0.29675502  0.82468528  0.33327457     0.05800
C1088       C  0.27921405  0.80754135  0.35609656    -0.13900
Br1089     Br  0.28385749  0.76694206  0.42198733    -0.06000
Br1090     Br  0.17270842  0.72561466  0.35580591    -0.00300
Br1091     Br  0.31940000  0.78171052  0.27990557     0.00100
Br1092     Br  0.26534994  0.81812196  0.39114480    -0.04300
Br1093     Br  0.23438641  0.72762430  0.46617702     0.00200
Br1094     Br  0.22217820  0.76646579  0.31470356    -0.03600
Br1095     Br  0.27153611  0.74042526  0.32450650    -0.04500
Br1096     Br  0.30586607  0.85860731  0.33709379    -0.00500
C1097       C  0.90243276  0.61144874  0.25001490     0.00900
C1098       C  0.89190168  0.62649701  0.25260682     0.03800
C1099       C  0.90194822  0.64875408  0.23412985    -0.12300
C1100       C  0.92190496  0.65570212  0.21176004     0.23100
C1101       C  0.93231441  0.64068759  0.20894820    -0.12900
C1102       C  0.92349964  0.61947762  0.22891474     0.04500
C1103       C  0.93397775  0.67998422  0.19393890     0.26900
C1104       C  0.92437216  0.68368664  0.16378181    -0.13600
C1105       C  0.93649107  0.70671621  0.14705745     0.05000
C1106       C  0.95933121  0.72580455  0.15916106    -0.09500
C1107       C  0.97002925  0.72066068  0.18734185     0.05800
C1108       C  0.95667748  0.69882158  0.20580925    -0.13900
Br1109     Br  0.95911464  0.64944681  0.17758181    -0.06000
Br1110     Br  0.86346347  0.61660226  0.28052930    -0.00300
Br1111     Br  0.92157106  0.71147775  0.10764499     0.00100
Br1112     Br  0.96978662  0.69451917  0.24767730    -0.04300
Br1113     Br  0.94221200  0.60286977  0.22860248     0.00200
Br1114     Br  0.88876413  0.67014702  0.23965638    -0.03600
Br1115     Br  0.89495768  0.65678623  0.14499957    -0.04500
Br1116     Br  0.00426307  0.74158112  0.19918040    -0.00500
C1117       C  0.82167829  0.52235862  0.19743470     0.00900
C1118       C  0.79702420  0.50318674  0.19404058     0.03800
C1119       C  0.78096877  0.50568680  0.17204040    -0.12300
C1120       C  0.78962820  0.52660224  0.15150526     0.23100
C1121       C  0.81468806  0.54465141  0.15222894    -0.12900
C1122       C  0.83062157  0.54286162  0.17553234     0.04500
C1123       C  0.77178380  0.53018774  0.13132395     0.26900
C1124       C  0.76301879  0.51812657  0.10020759    -0.13600
C1125       C  0.74299338  0.51799727  0.08427069     0.05000
C1126       C  0.73211017  0.53071417  0.09885424    -0.09500
C1127       C  0.74208623  0.54413165  0.12896367     0.05800
C1128       C  0.76169643  0.54369772  0.14516309    -0.13900
Br1129     Br  0.82679520  0.57218505  0.12181214    -0.06000
Br1130     Br  0.78508905  0.47279377  0.21841845    -0.00300
Br1131     Br  0.73070559  0.50023579  0.04249464     0.00100
Br1132     Br  0.77411460  0.56069113  0.18744498    -0.04300
Br1133     Br  0.86403153  0.56954288  0.17839633     0.00200
Br1134     Br  0.74660667  0.48091070  0.17120099    -0.03600
Br1135     Br  0.77842014  0.50152532  0.07985654    -0.04500
Br1136     Br  0.72772188  0.56145773  0.15016689    -0.00500
C1137       C  0.80064386  0.52560829  0.35270530     0.00900
C1138       C  0.79130924  0.54133688  0.34629325     0.03800
C1139       C  0.77111251  0.53909257  0.36502338    -0.12300
C1140       C  0.75963575  0.52087895  0.39010136     0.23100
C1141       C  0.76857782  0.50484479  0.39620228    -0.12900
C1142       C  0.78892192  0.50718502  0.37779222     0.04500
C1143       C  0.74004821  0.52039964  0.41241479     0.26900
C1144       C  0.74699596  0.53657863  0.44003806    -0.13600
C1145       C  0.72905548  0.53667112  0.46126001     0.05000
C1146       C  0.70382067  0.52033611  0.45570635    -0.09500
C1147       C  0.69674784  0.50397787  0.42820430     0.05800
C1148       C  0.71477456  0.50402757  0.40658562    -0.13900
Br1149     Br  0.75337956  0.48013579  0.43087224    -0.06000
Br1150     Br  0.80527887  0.56527656  0.31072300    -0.00300
Br1151     Br  0.73940144  0.55899878  0.99903504     0.00100
Br1152     Br  0.70496237  0.48094888  0.36994296    -0.04300
Br1153     Br  0.80133766  0.48572177  0.38882449     0.00200
Br1154     Br  0.75929872  0.56138590  0.35698042    -0.03600
Br1155     Br  0.78138701  0.55789145  0.44974842    -0.04500
Br1156     Br  0.66245782  0.48054434  0.42160863    -0.00500
C1157       C  0.94791143  0.57271566  0.32153804     0.00900
C1158       C  0.95933525  0.59758291  0.33123268     0.03800
C1159       C  0.98103929  0.60825282  0.35029588    -0.12300
C1160       C  0.99137162  0.59411074  0.36036824     0.23100
C1161       C  0.98064373  0.56958005  0.34958693    -0.12900
C1162       C  0.95900869  0.55893507  0.33004957     0.04500
C1163       C  0.01432647  0.60568134  0.38064687     0.26900
C1164       C  0.03703697  0.61559500  0.36403288    -0.13600
C1165       C  0.05902352  0.62802008  0.38239608     0.05000
C1166       C  0.05858760  0.63153756  0.41793538    -0.09500
C1167       C  0.03553244  0.62165982  0.43445324     0.05800
C1168       C  0.01356766  0.60839406  0.41590392    -0.13900
Br1169     Br  0.99552462  0.55061654  0.36218186    -0.06000
Br1170     Br  0.94519373  0.61726729  0.31872393    -0.00300
Br1171     Br  0.08929268  0.63963205  0.35735871     0.00100
Br1172     Br  0.98217761  0.59444933  0.43845533    -0.04300
Br1173     Br  0.94403487  0.52528118  0.31632075     0.00200
Br1174     Br  0.99673741  0.64237639  0.36277810    -0.03600
Br1175     Br  0.03779879  0.61285087  0.31541112    -0.04500
Br1176     Br  0.03344657  0.62800539  0.48173819    -0.00500
C1177       C  0.72818106  0.19290816  0.35022129     0.00900
C1178       C  0.73715292  0.18869490  0.38064597     0.03800
C1179       C  0.75440316  0.20863713  0.40009015    -0.12300
C1180       C  0.76292178  0.23278704  0.38919203     0.23100
C1181       C  0.75461680  0.23709609  0.35855791    -0.12900
C1182       C  0.73737832  0.21734219  0.33907745     0.04500
C1183       C  0.78051461  0.25381393  0.41005731     0.26900
C1184       C  0.77184286  0.26361471  0.43469989    -0.13600
C1185       C  0.78851559  0.28284839  0.45554536     0.05000
C1186       C  0.81422732  0.29291983  0.45120169    -0.09500
C1187       C  0.82264274  0.28501652  0.42322480     0.05800
C1188       C  0.80583555  0.26472491  0.40399396    -0.13900
Br1189     Br  0.76633800  0.27035941  0.34406797    -0.06000
Br1190     Br  0.72455924  0.15589360  0.39757359    -0.00300
Br1191     Br  0.77545816  0.29615739  0.98801776     0.00100
Br1192     Br  0.81732600  0.25115314  0.36966025    -0.04300
Br1193     Br  0.72667517  0.22451199  0.29717674     0.00200
Br1194     Br  0.76570242  0.20312768  0.44259317    -0.03600
Br1195     Br  0.73692354  0.25058683  0.43952373    -0.04500
Br1196     Br  0.85675770  0.30159423  0.40961873    -0.00500
C1197       C  0.80842121  0.27231980  0.10617242     0.00900
C1198       C  0.79900209  0.24736674  0.09837729     0.03800
C1199       C  0.77902085  0.22896496  0.11704133    -0.12300
C1200       C  0.76838103  0.23533404  0.14366889     0.23100
C1201       C  0.77792277  0.26016830  0.15170931    -0.12900
C1202       C  0.79785275  0.27852021  0.13326903     0.04500
C1203       C  0.74775641  0.21609541  0.16425643     0.26900
C1204       C  0.72313462  0.20664453  0.15433117    -0.13600
C1205       C  0.70369968  0.18959041  0.17504498     0.05000
C1206       C  0.70876455  0.18246610  0.20631822    -0.09500
C1207       C  0.73347310  0.19199716  0.21618884     0.05800
C1208       C  0.75281045  0.20844839  0.19505755    -0.13900
Br1209     Br  0.76344696  0.26898975  0.18818753    -0.06000
Br1210     Br  0.81263396  0.23835420  0.06122273    -0.00300
Br1211     Br  0.67015826  0.17711877  0.16154394     0.00100
Br1212     Br  0.78643422  0.22104647  0.20857403    -0.04300
Br1213     Br  0.81119601  0.31218192  0.14662649     0.00200
Br1214     Br  0.76581999  0.19493023  0.10604729    -0.03600
Br1215     Br  0.71616837  0.21809447  0.11309615    -0.04500
Br1216     Br  0.74113984  0.18198014  0.25831473    -0.00500
C1217       C  0.87006392  0.46851191  0.23093833     0.00900
C1218       C  0.88861902  0.47372757  0.20640038     0.03800
C1219       C  0.88900616  0.45453677  0.18880923    -0.12300
C1220       C  0.87159032  0.43005013  0.19619796     0.23100
C1221       C  0.85405713  0.42464947  0.22177455    -0.12900
C1222       C  0.85270893  0.44362477  0.23836771     0.04500
C1223       C  0.86895616  0.41016898  0.17345943     0.26900
C1224       C  0.85050775  0.40128038  0.14880953    -0.13600
C1225       C  0.84673930  0.38186641  0.12782078     0.05000
C1226       C  0.86325751  0.37281322  0.12853140    -0.09500
C1227       C  0.88108860  0.38095269  0.15458637     0.05800
C1228       C  0.88389627  0.39966284  0.17685888    -0.13900
Br1229     Br  0.83103331  0.39081745  0.23270949    -0.06000
Br1230     Br  0.91250091  0.50691350  0.19374732    -0.00300
Br1231     Br  0.81703319  0.36646408  0.10105909     0.00100
Br1232     Br  0.90868626  0.41157599  0.21150114    -0.04300
Br1233     Br  0.82626860  0.43453083  0.27043439     0.00200
Br1234     Br  0.91234865  0.46158692  0.15266081    -0.03600
Br1235     Br  0.83081657  0.41651089  0.14288678    -0.04500
Br1236     Br  0.90143862  0.36656429  0.16124436    -0.00500
C1237       C  0.86696223  0.39633658  0.47931606     0.00900
C1238       C  0.88689028  0.42025514  0.48470877     0.03800
C1239       C  0.88807069  0.44037968  0.46751290    -0.12300
C1240       C  0.86865802  0.43696762  0.44635239     0.23100
C1241       C  0.84769966  0.41350501  0.44362098    -0.12900
C1242       C  0.84711794  0.39316857  0.45899664     0.04500
C1243       C  0.87105153  0.45690777  0.42359434     0.26900
C1244       C  0.86611056  0.47508909  0.43503062    -0.13600
C1245       C  0.86535368  0.49177903  0.41190616     0.05000
C1246       C  0.86796743  0.48934211  0.37670306    -0.09500
C1247       C  0.87492920  0.47223879  0.36600943     0.05800
C1248       C  0.87652638  0.45631411  0.38928233    -0.13900
Br1249     Br  0.81985935  0.40932056  0.41797497    -0.06000
Br1250     Br  0.91186296  0.42575452  0.51717850    -0.00300
Br1251     Br  0.86077644  0.51766737  0.42925359     0.00100
Br1252     Br  0.88554199  0.43282337  0.37405971    -0.04300
Br1253     Br  0.81965177  0.36092922  0.44960825     0.00200
Br1254     Br  0.91646611  0.47253933  0.47242492    -0.03600
Br1255     Br  0.85917548  0.47619187  0.48226522    -0.04500
Br1256     Br  0.88374192  0.47084794  0.31971954    -0.00500
C1257       C  0.89573871  0.28269124  0.00089989     0.00900
C1258       C  0.91881944  0.28547285  0.00850073     0.03800
C1259       C  0.92878921  0.27474549  0.48746364    -0.12300
C1260       C  0.91532325  0.26020179  0.45968880     0.23100
C1261       C  0.89130773  0.25549758  0.45413383    -0.12900
C1262       C  0.88133271  0.26622155  0.47526903     0.04500
C1263       C  0.92555586  0.24778292  0.43891302     0.26900
C1264       C  0.93760002  0.25775625  0.40794078    -0.13600
C1265       C  0.94938435  0.24703320  0.39042806     0.05000
C1266       C  0.95105708  0.22763371  0.40545527    -0.09500
C1267       C  0.93797310  0.21715211  0.43581109     0.05800
C1268       C  0.92459964  0.22662929  0.45166138    -0.13900
Br1269     Br  0.87235095  0.23482289  0.41712084    -0.06000
Br1270     Br  0.93618300  0.30275684  0.04860207    -0.00300
Br1271     Br  0.96453844  0.26025938  0.34715024     0.00100
Br1272     Br  0.90578913  0.21138862  0.49210144    -0.04300
Br1273     Br  0.84727608  0.25674600  0.47123689     0.00200
Br1274     Br  0.96196218  0.28159808  0.99487462    -0.03600
Br1275     Br  0.93957181  0.28725134  0.39103983    -0.04500
Br1276     Br  0.93881013  0.19030032  0.45712721    -0.00500
C1277       C  0.14623911  0.20735148  0.19023112     0.00900
C1278       C  0.13031015  0.18870817  0.21293358     0.03800
C1279       C  0.11137619  0.19017080  0.22926252    -0.12300
C1280       C  0.10904776  0.21091812  0.22495009     0.23100
C1281       C  0.12546997  0.23016383  0.20385944    -0.12900
C1282       C  0.14413561  0.22852792  0.18650378     0.04500
C1283       C  0.09057805  0.21297770  0.24549324     0.26900
C1284       C  0.06689279  0.20461772  0.23273312    -0.13600
C1285       C  0.04790928  0.20160249  0.25460936     0.05000
C1286       C  0.05250479  0.20636114  0.28951430    -0.09500
C1287       C  0.07665654  0.21568688  0.30178379     0.05800
C1288       C  0.09567499  0.21952104  0.27965750    -0.13900
Br1289     Br  0.12231139  0.25878602  0.19928377    -0.06000
Br1290     Br  0.13576839  0.16237341  0.22559970    -0.00300
Br1291     Br  0.01533150  0.18850727  0.23690509     0.00100
Br1292     Br  0.12865698  0.23226405  0.29639032    -0.04300
Br1293     Br  0.16656699  0.25568084  0.15829900     0.00200
Br1294     Br  0.08870033  0.16383596  0.25848964    -0.03600
Br1295     Br  0.06029364  0.19568751  0.18570300    -0.04500
Br1296     Br  0.08411136  0.22256064  0.34911052    -0.00500
C1297       C  0.06513715  0.19949247  0.43963199     0.00900
C1298       C  0.08792532  0.22104903  0.44605536     0.03800
C1299       C  0.10652282  0.21961625  0.46372499    -0.12300
C1300       C  0.10250452  0.19691386  0.47555329     0.23100
C1301       C  0.07996642  0.17554692  0.46971387    -0.12900
C1302       C  0.06149851  0.17656693  0.45141194     0.04500
C1303       C  0.12076271  0.19583511  0.99787704     0.26900
C1304       C  0.13674912  0.18815584  0.48548408    -0.13600
C1305       C  0.15279027  0.18558189  0.00768472     0.05000
C1306       C  0.15296923  0.19088516  0.04246151    -0.09500
C1307       C  0.13671530  0.19864156  0.05440801     0.05800
C1308       C  0.12066872  0.20087209  0.03232330    -0.13900
Br1309     Br  0.07398305  0.14489393  0.48896081    -0.06000
Br1310     Br  0.09456065  0.25277044  0.43053268    -0.00300
Br1311     Br  0.17345317  0.17375004  0.99029420     0.00100
Br1312     Br  0.09752546  0.20990211  0.04947848    -0.04300
Br1313     Br  0.03112520  0.14582446  0.44468388     0.00200
Br1314     Br  0.13767063  0.24897085  0.97267115    -0.03600
Br1315     Br  0.13539187  0.17976763  0.43837521    -0.04500
Br1316     Br  0.13650318  0.20764103  0.10075475    -0.00500
C1317       C  0.87318746  0.06102084  0.06971342     0.00900
C1318       C  0.87673489  0.08500357  0.06898785     0.03800
C1319       C  0.89627692  0.10372306  0.05039149    -0.12300
C1320       C  0.91223991  0.09870316  0.03185827     0.23100
C1321       C  0.90995243  0.07556433  0.03376600    -0.12900
C1322       C  0.89075568  0.05670471  0.05256578     0.04500
C1323       C  0.92965426  0.11683855  0.50772184     0.26900
C1324       C  0.92132028  0.11797480  0.47522307    -0.13600
C1325       C  0.93768684  0.13460608  0.45128486     0.05000
C1326       C  0.96272796  0.14972289  0.45942923    -0.09500
C1327       C  0.97095315  0.14899370  0.49234840     0.05800
C1328       C  0.95450481  0.13256142  0.01616056    -0.13900
Br1329     Br  0.93311158  0.06969596  0.00924964    -0.06000
Br1330     Br  0.85539348  0.09347902  0.09309138    -0.00300
Br1331     Br  0.92500820  0.13830427  0.40873519     0.00100
Br1332     Br  0.96566435  0.13090625  0.06084627    -0.04300
Br1333     Br  0.88911054  0.02530214  0.05238784     0.00200
Br1334     Br  0.90133358  0.13647039  0.04941137    -0.03600
Br1335     Br  0.88729965  0.09652421  0.46356041    -0.04500
Br1336     Br  0.00496468  0.17035131  0.00460946    -0.00500
C1337       C  0.85415014  0.03705084  0.21333677     0.00900
C1338       C  0.87235664  0.03458325  0.23031078     0.03800
C1339       C  0.89168618  0.05495145  0.24683493    -0.12300
C1340       C  0.89089050  0.07679604  0.25073871     0.23100
C1341       C  0.87198946  0.07868778  0.23470545    -0.12900
C1342       C  0.85587154  0.06009925  0.21286130     0.04500
C1343       C  0.91027883  0.09803915  0.27009954     0.26900
C1344       C  0.91429640  0.09550471  0.30447450    -0.13600
C1345       C  0.93410806  0.11488320  0.32146944     0.05000
C1346       C  0.94599480  0.13877361  0.30738455    -0.09500
C1347       C  0.94039110  0.14175041  0.27387628     0.05800
C1348       C  0.92485226  0.12103393  0.25433633    -0.13900
Br1349     Br  0.86799805  0.10668332  0.24173920    -0.06000
Br1350     Br  0.87201992  0.00397564  0.22803675    -0.00300
Br1351     Br  0.94569308  0.10722094  0.36207871     0.00100
Br1352     Br  0.92531535  0.12392697  0.20572508    -0.04300
Br1353     Br  0.84093607  0.06850227  0.17701590     0.00200
Br1354     Br  0.92028208  0.05362848  0.26075697    -0.03600
Br1355     Br  0.89240360  0.06588327  0.32890261    -0.04500
Br1356     Br  0.95443259  0.17379380  0.25383870    -0.00500
C1357       C  0.06366801  0.42265988  0.14308443     0.00900
C1358       C  0.06672373  0.43174773  0.10972576     0.03800
C1359       C  0.04595479  0.42582206  0.08938781    -0.12300
C1360       C  0.02202319  0.40867288  0.10077873     0.23100
C1361       C  0.01917384  0.39851597  0.13333326    -0.12900
C1362       C  0.03948845  0.40678718  0.15504546     0.04500
C1363       C  0.99946168  0.40187739  0.08009047     0.26900
C1364       C  0.98266361  0.40909286  0.09084493    -0.13600
C1365       C  0.95866064  0.39763876  0.07749096     0.05000
C1366       C  0.95137328  0.37947715  0.05233975    -0.09500
C1367       C  0.96945883  0.37538185  0.03762918     0.05800
C1368       C  0.99313819  0.38589488  0.05216576    -0.13900
Br1369     Br  0.98702865  0.37360647  0.14881770    -0.06000
Br1370     Br  0.09915759  0.45491368  0.09356663    -0.00300
Br1371     Br  0.93580464  0.40731573  0.09290817     0.00100
Br1372     Br  0.01634154  0.37713042  0.03517426    -0.04300
Br1373     Br  0.03329770  0.39833738  0.20230923     0.00200
Br1374     Br  0.05007589  0.44311136  0.04760830    -0.03600
Br1375     Br  0.99229722  0.43404145  0.12498441    -0.04500
Br1376     Br  0.96193890  0.35515588  0.99797800    -0.00500
C1377       C  0.08419927  0.39782426  0.27540168     0.00900
C1378       C  0.09041150  0.40018120  0.30995525     0.03800
C1379       C  0.08456454  0.37917859  0.32940281    -0.12300
C1380       C  0.07094406  0.35560686  0.31503619     0.23100
C1381       C  0.06346194  0.35325318  0.28109183    -0.12900
C1382       C  0.07137022  0.37416899  0.26088857     0.04500
C1383       C  0.06514302  0.33306462  0.33442250     0.26900
C1384       C  0.07652426  0.31953031  0.32539184    -0.13600
C1385       C  0.06663249  0.29522312  0.33674075     0.05000
C1386       C  0.04674747  0.28510302  0.35958041    -0.09500
C1387       C  0.03786518  0.29997851  0.37247346     0.05800
C1388       C  0.04615386  0.32340901  0.35871969    -0.13900
Br1389     Br  0.04260725  0.32112357  0.26195365    -0.06000
Br1390     Br  0.10946669  0.43232877  0.32952539    -0.00300
Br1391     Br  0.07990528  0.27560754  0.32045049     0.00100
Br1392     Br  0.02989671  0.34121553  0.37086934    -0.04300
Br1393     Br  0.06651512  0.36988365  0.21267364     0.00200
Br1394     Br  0.09663738  0.38273139  0.37489995    -0.03600
Br1395     Br  0.10494211  0.33400779  0.29612338    -0.04500
Br1396     Br  0.01346850  0.28787804  0.40787670    -0.00500
C1397       C  0.18213230  0.46290789  0.28121457     0.00900
C1398       C  0.20189989  0.48401302  0.29671031     0.03800
C1399       C  0.21568260  0.48148676  0.32260251    -0.12300
C1400       C  0.21050428  0.45818589  0.33312235     0.23100
C1401       C  0.19054585  0.43720296  0.31901285    -0.12900
C1402       C  0.17639308  0.43941773  0.29318860     0.04500
C1403       C  0.22854695  0.45622964  0.35501400     0.26900
C1404       C  0.24829414  0.45551552  0.33952169    -0.13600
C1405       C  0.26792223  0.45797341  0.35907959     0.05000
C1406       C  0.26787196  0.46096136  0.39437533    -0.09500
C1407       C  0.24756000  0.46038427  0.41019782     0.05800
C1408       C  0.22790963  0.45810284  0.39050597    -0.13900
Br1409     Br  0.18306538  0.40537890  0.33504845    -0.06000
Br1410     Br  0.21239845  0.51700797  0.28172086    -0.00300
Br1411     Br  0.29539472  0.45836013  0.33698395     0.00100
Br1412     Br  0.20044713  0.45813132  0.41182688    -0.04300
Br1413     Br  0.14915805  0.40979863  0.27525060     0.00200
Br1414     Br  0.24275195  0.51014153  0.34315175    -0.03600
Br1415     Br  0.24886411  0.45218772  0.29105759    -0.04500
Br1416     Br  0.24675883  0.46254404  0.45875466    -0.00500
C1417       C  0.19433786  0.47768099  0.14350717     0.00900
C1418       C  0.19196310  0.47346943  0.10822719     0.03800
C1419       C  0.21111340  0.47359104  0.08929562    -0.12300
C1420       C  0.23294060  0.47801942  0.10526642     0.23100
C1421       C  0.23567366  0.48283353  0.14014515    -0.12900
C1422       C  0.21657692  0.48255407  0.15918008     0.04500
C1423       C  0.25341407  0.47843159  0.08536322     0.26900
C1424       C  0.25686772  0.45805875  0.08528320    -0.13600
C1425       C  0.27620287  0.45855356  0.06636699     0.05000
C1426       C  0.29160995  0.47904716  0.04606037    -0.09500
C1427       C  0.28867612  0.49985638  0.04744260     0.05800
C1428       C  0.26999988  0.49962660  0.06739692    -0.13900
Br1429     Br  0.26595109  0.48991541  0.16179604    -0.06000
Br1430     Br  0.16310216  0.46881783  0.08518258    -0.00300
Br1431     Br  0.28087302  0.43077372  0.06768480     0.00100
Br1432     Br  0.26705831  0.52849669  0.07038650    -0.04300
Br1433     Br  0.22113775  0.48765115  0.20718110     0.00200
Br1434     Br  0.20764077  0.46784738  0.04122243    -0.03600
Br1435     Br  0.23454822  0.42919453  0.11054651    -0.04500
Br1436     Br  0.31027075  0.52921096  0.52257587    -0.00500
C1437       C  0.12236970  0.52341590  0.15511972     0.00900
C1438       C  0.14179474  0.54785369  0.15165885     0.03800
C1439       C  0.14093312  0.56295239  0.12644988    -0.12300
C1440       C  0.12068271  0.55382258  0.10460165     0.23100
C1441       C  0.10067606  0.52995981  0.10907147    -0.12900
C1442       C  0.10110039  0.51505304  0.13508285     0.04500
C1443       C  0.11983616  0.57019590  0.07870469     0.26900
C1444       C  0.10739958  0.58289087  0.08587091    -0.13600
C1445       C  0.10907295  0.60081336  0.06336834     0.05000
C1446       C  0.12316549  0.60599802  0.03341838    -0.09500
C1447       C  0.13452954  0.59231511  0.02549275     0.05800
C1448       C  0.13307444  0.57461341  0.04828838    -0.13900
Br1449     Br  0.07280201  0.51777644  0.07924847    -0.06000
Br1450     Br  0.16858052  0.56171961  0.18353248    -0.00300
Br1451     Br  0.09354186  0.61934181  0.07555296     0.00100
Br1452     Br  0.15010536  0.55713559  0.03873225    -0.04300
Br1453     Br  0.07199226  0.48393830  0.14361899     0.00200
Br1454     Br  0.16738002  0.59642355  0.12204318    -0.03600
Br1455     Br  0.08926323  0.57662847  0.12770654    -0.04500
Br1456     Br  0.15162762  0.59734210  0.48324165    -0.00500
C1457       C  0.12913579  0.52509594  0.29053925     0.00900
C1458       C  0.11737217  0.53793933  0.28004396     0.03800
C1459       C  0.11938763  0.55761667  0.29923083    -0.12300
C1460       C  0.13308625  0.56473876  0.32927073     0.23100
C1461       C  0.14409700  0.55136770  0.34062964    -0.12900
C1462       C  0.14235207  0.53177972  0.32110494     0.04500
C1463       C  0.13521724  0.58597288  0.34886284     0.26900
C1464       C  0.15434997  0.61007438  0.34193250    -0.13600
C1465       C  0.15545818  0.63019629  0.35914876     0.05000
C1466       C  0.13786864  0.62632033  0.38405050    -0.09500
C1467       C  0.11837193  0.60229274  0.39026984     0.05800
C1468       C  0.11688397  0.58228532  0.37246583    -0.13900
Br1469     Br  0.16134284  0.55981437  0.38302613    -0.06000
Br1470     Br  0.09854609  0.52904999  0.23907749    -0.00300
Br1471     Br  0.18137585  0.66309528  0.34950040     0.00100
Br1472     Br  0.08966953  0.54967619  0.38024838    -0.04300
Br1473     Br  0.15823647  0.51419388  0.33579695     0.00200
Br1474     Br  0.10328902  0.57503603  0.28445813    -0.03600
Br1475     Br  0.17927153  0.61540304  0.30925971    -0.04500
Br1476     Br  0.09357913  0.59675269  0.42338229    -0.00500
O1477       O  0.08204758  0.44586405  0.69165346    -0.82200
C1478       C  0.16752116  0.46573417  0.75356734     0.97200
O1479       O  0.15743851  0.44956071  0.73008327    -0.71300
O1480       O  0.10959433  0.42023486  0.73063407    -0.74900
Al1481     Al  0.13040228  0.44226187  0.69812532     1.49000
C1482       C  0.09532964  0.41966590  0.75312293     0.92400
O1483       O  0.11336481  0.48470419  0.76805048    -0.81100
O1484       O  0.14561403  0.50750407  0.67934352    -0.74700
Al1485     Al  0.10085043  0.46537994  0.72765513     1.90100
O1486       O  0.14627206  0.51396979  0.74565299    -0.73800
O1487       O  0.17761901  0.49086200  0.68780208    -0.73600
O1488       O  0.16586444  0.48494232  0.75350305    -0.79300
O1489       O  0.15189728  0.45869528  0.66070996    -0.77500
O1490       O  0.12871748  0.46763109  0.71390027    -1.13600
O1491       O  0.10333663  0.43197189  0.66596717    -0.72800
C1492       C  0.08430904  0.43396868  0.66801204     0.97900
C1493       C  0.12979436  0.50683754  0.76760038     0.94300
Al1494     Al  0.15615328  0.49644669  0.71626958     1.55600
O1495       O  0.09101681  0.43706445  0.75633979    -0.77400
C1496       C  0.17349914  0.47590367  0.66448671     0.98500
C1497       C  0.12511401  0.50694011  0.67896054     0.93400
O1498       O  0.10753181  0.49330278  0.69921753    -0.82700
O1499       O  0.99381723  0.18906873  0.94077662    -0.82200
C1500       C  0.03236616  0.20019347  0.81356567     0.97200
O1501       O  0.03129820  0.18827118  0.83970294    -0.71300
O1502       O  0.03045916  0.18194385  0.90447894    -0.74900
Al1503     Al  0.00625749  0.17421914  0.87210845     1.49000
C1504       C  0.04524831  0.20042523  0.92066177     0.92400
O1505       O  0.03114094  0.24996731  0.89474821    -0.81100
O1506       O  0.97239035  0.21817439  0.86246775    -0.74700
Al1507     Al  0.01218414  0.21814125  0.91413914     1.90100
O1508       O  0.02043847  0.24464120  0.84146071    -0.73800
O1509       O  0.96689415  0.17995981  0.82858783    -0.73600
O1510       O  0.01683313  0.20702196  0.80841501    -0.79300
O1511       O  0.98281244  0.15735967  0.83836345    -0.77500
O1512       O  0.00451110  0.20157607  0.87487655    -1.13600
O1513       O  0.98116394  0.15829686  0.90486286    -0.72800
C1514       C  0.98020654  0.16661557  0.93356278     0.97900
C1515       C  0.03262795  0.25840651  0.86549055     0.94300
Al1516     Al  0.99499358  0.21146766  0.83848299     1.55600
O1517       O  0.04246197  0.21870899  0.92097978    -0.77400
C1518       C  0.96609046  0.15978366  0.82586660     0.98500
C1519       C  0.96988941  0.22160476  0.89333250     0.93400
O1520       O  0.98398455  0.22096439  0.91507973    -0.82700
O1521       O  0.87018034  0.34162785  0.60438610    -0.82200
C1522       C  0.83171975  0.30994851  0.97707569     0.97200
O1523       O  0.82431058  0.30825718  0.50736906    -0.71300
O1524       O  0.82422837  0.30855788  0.57395803    -0.74900
Al1525     Al  0.83972182  0.33310451  0.54010941     1.49000
C1526       C  0.82794667  0.29222293  0.58531400     0.92400
O1527       O  0.88901162  0.30460950  0.54567766    -0.81100
O1528       O  0.91631627  0.35845285  0.51563738    -0.74700
Al1529     Al  0.87858591  0.32371079  0.57179890     1.90100
O1530       O  0.88410791  0.31202798  0.49296359    -0.73800
O1531       O  0.88513881  0.37248266  0.99514977    -0.73600
O1532       O  0.85383018  0.32546134  0.96951226    -0.79300
O1533       O  0.84670524  0.35813218  0.50779105    -0.77500
O1534       O  0.86753112  0.33267133  0.53631382    -1.13600
O1535       O  0.85355557  0.35782141  0.57273187    -0.72800
C1536       C  0.86248062  0.35658770  0.60060774     0.97900
C1537       C  0.88881805  0.30030634  0.51436597     0.94300
Al1538     Al  0.88351766  0.34132331  0.49687834     1.55600
O1539       O  0.84823898  0.29351845  0.57970310    -0.77400
C1540       C  0.86645673  0.37482865  0.99508795     0.98500
C1541       C  0.92461857  0.36261784  0.54541801     0.93400
O1542       O  0.91047201  0.35198278  0.57005682    -0.82700
O1543       O  0.89151808  0.57049119  0.74760764    -0.82200
C1544       C  0.86227659  0.50321812  0.85046218     0.97200
O1545       O  0.86741428  0.52539640  0.85536164    -0.71300
O1546       O  0.90669327  0.56097225  0.82723875    -0.74900
Al1547     Al  0.87383097  0.55214936  0.82358322     1.49000
C1548       C  0.92256959  0.56096500  0.80828252     0.92400
O1549       O  0.88689860  0.50925130  0.75325605    -0.81100
O1550       O  0.82661158  0.51392730  0.75412545    -0.74700
Al1551     Al  0.88699951  0.53941499  0.75322567     1.90100
O1552       O  0.84772905  0.48615129  0.75554914    -0.73800
O1553       O  0.82082929  0.50883823  0.82147489    -0.73600
O1554       O  0.85209188  0.49208888  0.82320875    -0.79300
O1555       O  0.84141317  0.54797189  0.82799013    -0.77500
O1556       O  0.86710288  0.53209043  0.78856284    -1.13600
O1557       O  0.88309225  0.58159519  0.79595116    -0.72800
C1558       C  0.89120277  0.58658120  0.76568186     0.97900
C1559       C  0.86820139  0.48898743  0.74738388     0.94300
Al1560     Al  0.83945881  0.50310675  0.78868024     1.55600
O1561       O  0.91711737  0.55220286  0.77880548    -0.77400
C1562       C  0.82203866  0.52783080  0.83286775     0.98500
C1563       C  0.83693309  0.52180737  0.72556781     0.93400
O1564       O  0.85960145  0.52852767  0.72113640    -0.82700
O1565       O  0.10832057  0.68714861  0.99880084    -0.82200
C1566       C  0.14253192  0.64605084  0.90845753     0.97200
O1567       O  0.13947172  0.66408940  0.90051095    -0.71300
O1568       O  0.09963883  0.66401530  0.92107296    -0.74900
Al1569     Al  0.13286739  0.68611372  0.92910307     1.49000
C1570       C  0.08217182  0.64680208  0.93663548     0.92400
O1571       O  0.11030870  0.62929459  0.50206620    -0.81100
O1572       O  0.17306856  0.69212627  0.00472987    -0.74700
Al1573     Al  0.11216412  0.65992137  0.99752643     1.90100
O1574       O  0.14928791  0.64330817  0.00520466    -0.73800
O1575       O  0.18354245  0.69163929  0.93860825    -0.73600
O1576       O  0.14952745  0.64401159  0.93764900    -0.79300
O1577       O  0.16590571  0.71255063  0.92941268    -0.77500
O1578       O  0.13513864  0.67147769  0.96579081    -1.13600
O1579       O  0.12536436  0.70855547  0.95334269    -0.72800
C1580       C  0.11465737  0.70597832  0.98155973     0.97900
C1581       C  0.12767761  0.62693965  0.51211890     0.94300
Al1582     Al  0.16139658  0.66812390  0.97102874     1.55600
O1583       O  0.08487262  0.64269262  0.96708734    -0.77400
C1584       C  0.18446452  0.71042173  0.92677777     0.98500
C1585       C  0.16055468  0.69131810  0.53048026     0.93400
O1586       O  0.13728781  0.67650960  0.53264378    -0.82700
O1587       O  0.98621756  0.76834906  0.66375318    -0.82200
C1588       C  0.01969821  0.83623831  0.56044357     0.97200
O1589       O  0.00254022  0.81414690  0.55568897    -0.71300
O1590       O  0.01424298  0.78387133  0.58046900    -0.74900
Al1591     Al  0.98679741  0.78685179  0.58774777     1.49000
C1592       C  0.02955185  0.78299261  0.59948980     0.92400
O1593       O  0.04209401  0.83102419  0.65761858    -0.81100
O1594       O  0.97550977  0.82244095  0.66002879    -0.74700
Al1595     Al  0.01255145  0.79995062  0.65786114     1.90100
O1596       O  0.02455897  0.85272024  0.65543177    -0.73800
O1597       O  0.97209537  0.82551961  0.59402594    -0.73600
O1598       O  0.02135865  0.84697616  0.58825972    -0.79300
O1599       O  0.95621955  0.78636263  0.58881238    -0.77500
O1600       O  0.99921183  0.80665470  0.62329461    -1.13600
O1601       O  0.97070727  0.75619482  0.61359482    -0.72800
C1602       C  0.97238418  0.75139137  0.64427346     0.97900
C1603       C  0.04283471  0.85091328  0.66304132     0.94300
Al1604     Al  0.99842905  0.83440355  0.62421311     1.55600
O1605       O  0.03058309  0.78836601  0.63056602    -0.77400
C1606       C  0.95446145  0.80517391  0.58548251     0.98500
C1607       C  0.97871374  0.81486589  0.68809811     0.93400
O1608       O  0.99563198  0.80950051  0.69143784    -0.82700
O1609       O  0.33560855  0.85544746  0.78096265    -0.82200
C1610       C  0.35452672  0.85281501  0.64622085     0.97200
O1611       O  0.35908352  0.84675184  0.67441145    -0.71300
O1612       O  0.36623486  0.84731661  0.73989093    -0.74900
Al1613     Al  0.33766090  0.83554294  0.71164026     1.49000
C1614       C  0.38269326  0.86867441  0.74803516     0.92400
O1615       O  0.36004806  0.91311595  0.72187832    -0.81100
O1616       O  0.30682104  0.88379092  0.70449662    -0.74700
Al1617     Al  0.34711391  0.88229877  0.74784038     1.90100
O1618       O  0.35060255  0.89986591  0.67011471    -0.73800
O1619       O  0.29278461  0.83924648  0.67995121    -0.73600
O1620       O  0.33749330  0.85796140  0.64353107    -0.79300
O1621       O  0.30966013  0.81652774  0.68281153    -0.77500
O1622       O  0.33588445  0.86262260  0.71232493    -1.13600
O1623       O  0.31636613  0.82265561  0.74908387    -0.72800
C1624       C  0.32043891  0.83258610  0.77786943     0.97900
C1625       C  0.36145131  0.91729433  0.69025252     0.94300
Al1626     Al  0.32283977  0.86951465  0.67751728     1.55600
O1627       O  0.37899050  0.88632031  0.74480322    -0.77400
C1628       C  0.29168892  0.81908798  0.67517113     0.98500
C1629       C  0.30502144  0.88580919  0.73621484     0.93400
O1630       O  0.31714556  0.88062820  0.75604151    -0.82700
O1631       O  0.19726088  0.00442691  0.94127761    -0.82200
C1632       C  0.17095527  0.98379731  0.80876421     0.97200
O1633       O  0.16083264  0.98054101  0.83736902    -0.71300
O1634       O  0.15416959  0.97618243  0.90275943    -0.74900
Al1635     Al  0.17310873  0.00261877  0.87332147     1.49000
C1636       C  0.15533291  0.95784350  0.91155530     0.92400
O1637       O  0.21895025  0.96988512  0.88076396    -0.81100
O1638       O  0.25087931  0.03084706  0.86537227    -0.74700
Al1639     Al  0.20700461  0.98758811  0.90814131     1.90100
O1640       O  0.22372902  0.98665974  0.83123241    -0.73800
O1641       O  0.22199509  0.04480186  0.84020800    -0.73600
O1642       O  0.19385163  0.99942268  0.80507853    -0.79300
O1643       O  0.18280675  0.02971126  0.84329050    -0.77500
O1644       O  0.20067855  0.00141836  0.87332889    -1.13600
O1645       O  0.18446109  0.02462255  0.90953070    -0.72800
C1646       C  0.19244376  0.02164271  0.93732770     0.97900
C1647       C  0.22471536  0.97115713  0.84973678     0.94300
Al1648     Al  0.22093916  0.01428624  0.83842871     1.55600
O1649       O  0.17533135  0.95819922  0.90792283    -0.77400
C1650       C  0.20372091  0.04728963  0.83626327     0.98500
C1651       C  0.25530234  0.02983818  0.89638131     0.93400
O1652       O  0.23899003  0.01370874  0.91482991    -0.82700
O1653       O  0.47255917  0.13980850  0.97643347    -0.82200
C1654       C  0.49806255  0.14859834  0.60945107     0.97200
O1655       O  0.50900100  0.15468728  0.58113542    -0.71300
O1656       O  0.51557131  0.15360674  0.51467770    -0.74900
Al1657     Al  0.49789520  0.16403332  0.54314345     1.49000
C1658       C  0.51201828  0.13283517  0.00747044     0.92400
O1659       O  0.44778944  0.08562103  0.54081071    -0.81100
O1660       O  0.41941123  0.11837345  0.55272169    -0.74700
Al1661     Al  0.46126212  0.11436097  0.51144109     1.90100
O1662       O  0.44344702  0.09987462  0.58897347    -0.73800
O1663       O  0.45055772  0.16167737  0.57544836    -0.73600
O1664       O  0.47554702  0.14257712  0.61236622    -0.79300
O1665       O  0.49003434  0.18389059  0.57127090    -0.77500
O1666       O  0.46908815  0.13609439  0.54467850    -1.13600
O1667       O  0.48757073  0.17431242  0.50530797    -0.72800
C1668       C  0.47934254  0.16253696  0.97803305     0.97900
C1669       C  0.44174459  0.08247486  0.57181047     0.94300
Al1670     Al  0.44899049  0.13104345  0.57927909     1.55600
O1671       O  0.49136739  0.11428101  0.01290268    -0.77400
C1672       C  0.46986056  0.18174441  0.57975029     0.98500
C1673       C  0.41465402  0.11148715  0.52234977     0.93400
O1674       O  0.43021672  0.11033708  0.50396227    -0.82700
O1675       O  0.76703519  0.98910357  0.59284864    -0.82200
C1676       C  0.83793869  0.01817448  0.68894552     0.97200
O1677       O  0.81507727  0.00282656  0.69522921    -0.71300
O1678       O  0.77944047  0.00919089  0.67206373    -0.74900
Al1679     Al  0.78660292  0.98422368  0.66439354     1.49000
C1680       C  0.78191534  0.02739362  0.65621557     0.92400
O1681       O  0.83242876  0.04116325  0.59492734    -0.81100
O1682       O  0.81940295  0.97322466  0.59167330    -0.74700
Al1683     Al  0.80001148  0.01314577  0.59700615     1.90100
O1684       O  0.85140796  0.02110191  0.59442829    -0.73800
O1685       O  0.82663203  0.97068419  0.65804203    -0.73600
O1686       O  0.84784275  0.01886246  0.66079145    -0.79300
O1687       O  0.78781921  0.95477069  0.66401813    -0.77500
O1688       O  0.80639488  0.99798157  0.62947602    -1.13600
O1689       O  0.75696317  0.96544575  0.63703377    -0.72800
C1690       C  0.75162606  0.97017623  0.60813420     0.97900
C1691       C  0.85140533  0.04015702  0.58756776     0.94300
Al1692     Al  0.83364012  0.99610154  0.62647861     1.55600
O1693       O  0.79155690  0.03225557  0.62694798    -0.77400
C1694       C  0.80652629  0.95305366  0.66721949     0.98500
C1695       C  0.81019778  0.97654691  0.56514743     0.93400
O1696       O  0.80632542  0.99453725  0.56231523    -0.82700
O1697       O  0.57329527  0.89499922  0.00011573    -0.82200
C1698       C  0.50824239  0.86151128  0.89127682     0.97200
O1699       O  0.53101290  0.86827191  0.88877557    -0.71300
O1700       O  0.56104270  0.90996564  0.91767110    -0.74900
Al1701     Al  0.55705410  0.87886671  0.92288293     1.49000
C1702       C  0.56005179  0.92498653  0.93731936     0.92400
O1703       O  0.51063805  0.88775590  0.49325075    -0.81100
O1704       O  0.51797439  0.82977544  0.99077791    -0.74700
Al1705     Al  0.54163454  0.88941045  0.49313052     1.90100
O1706       O  0.48835423  0.84889084  0.98585252    -0.73800
O1707       O  0.51733016  0.82526029  0.92403369    -0.73600
O1708       O  0.49681395  0.85355823  0.91907589    -0.79300
O1709       O  0.55683083  0.84846618  0.92250391    -0.77500
O1710       O  0.53580683  0.87053326  0.95712339    -1.13600
O1711       O  0.58650908  0.89170449  0.95056288    -0.72800
C1712       C  0.59037438  0.89714814  0.98160773     0.97900
C1713       C  0.49040102  0.86837116  0.49631380     0.94300
Al1714     Al  0.50767144  0.84203437  0.95517821     1.55600
O1715       O  0.55356659  0.91957730  0.96787542    -0.77400
C1716       C  0.53798599  0.82810266  0.91679995     0.98500
C1717       C  0.52642568  0.84008200  0.51888456     0.93400
O1718       O  0.53145897  0.86201007  0.52444427    -0.82700
O1719       O  0.67991055  0.10997869  0.74543373    -0.82200
C1720       C  0.64304570  0.13994466  0.85566494     0.97200
O1721       O  0.65820171  0.13232617  0.85774506    -0.71300
O1722       O  0.64493148  0.09130556  0.82502124    -0.74900
Al1723     Al  0.67389503  0.12215619  0.82369773     1.49000
C1724       C  0.63071920  0.07724464  0.80253265     0.92400
O1725       O  0.62397087  0.11686237  0.74720535    -0.81100
O1726       O  0.68805072  0.17508930  0.75869613    -0.74700
Al1727     Al  0.65334484  0.11541275  0.75016887     1.90100
O1728       O  0.63861863  0.15467801  0.76169765    -0.73800
O1729       O  0.68934451  0.17593529  0.82492801    -0.73600
O1730       O  0.64011464  0.14797475  0.82778949    -0.79300
O1731       O  0.70483922  0.15217897  0.82739508    -0.77500
O1732       O  0.66365944  0.13243274  0.78875054    -1.13600
O1733       O  0.69114035  0.10959887  0.79727611    -0.72800
C1734       C  0.69270948  0.10629125  0.76605413     0.97900
C1735       C  0.62202302  0.13558811  0.74825272     0.94300
Al1736     Al  0.66393063  0.16069327  0.79271665     1.55600
O1737       O  0.63310287  0.08405983  0.77198790    -0.77400
C1738       C  0.70662329  0.17263464  0.83296505     0.98500
C1739       C  0.68853562  0.16648641  0.73007548     0.93400
O1740       O  0.67284806  0.14447153  0.72215585    -0.82700
O1741       O  0.44237613  0.34355133  0.84089860    -0.82200
C1742       C  0.47591068  0.31075247  0.73250444     0.97200
O1743       O  0.46877945  0.32625614  0.72968863    -0.71300
O1744       O  0.42586725  0.31190279  0.75748362    -0.74900
Al1745     Al  0.45654856  0.34042910  0.76319261     1.49000
C1746       C  0.40997419  0.29771640  0.77830925     0.92400
O1747       O  0.44487093  0.28599256  0.83425916    -0.81100
O1748       O  0.50520288  0.35068582  0.83393524    -0.74700
Al1749     Al  0.44531054  0.31616618  0.83457980     1.90100
O1750       O  0.48402791  0.30111395  0.82688345    -0.73800
O1751       O  0.51072859  0.35614378  0.76761378    -0.73600
O1752       O  0.48244656  0.30682534  0.76083968    -0.79300
O1753       O  0.48677080  0.37137491  0.76320411    -0.77500
O1754       O  0.46470561  0.32840138  0.79841201    -1.13600
O1755       O  0.44210109  0.35615394  0.78979408    -0.72800
C1756       C  0.43847705  0.35663136  0.82126126     0.97900
C1757       C  0.46350400  0.28388393  0.83656112     0.94300
Al1758     Al  0.49303397  0.32865855  0.79747266     1.55600
O1759       O  0.41478309  0.29902958  0.80951791    -0.77400
C1760       C  0.50753352  0.37342940  0.75876192     0.98500
C1761       C  0.49500581  0.34791784  0.86242207     0.93400
O1762       O  0.47247036  0.33184100  0.86672444    -0.82700
O1763       O  0.24429891  0.22076890  0.66317684    -0.82200
C1764       C  0.16933500  0.18811113  0.56700977     0.97200
O1765       O  0.19162590  0.19487175  0.55976738    -0.71300
O1766       O  0.22667367  0.23625478  0.58283886    -0.74900
Al1767     Al  0.22050096  0.20424690  0.58823625     1.49000
C1768       C  0.22991266  0.25309213  0.60259008     0.92400
O1769       O  0.18571979  0.22207595  0.66483226    -0.81100
O1770       O  0.18627194  0.16034979  0.66591325    -0.74700
Al1771     Al  0.21429021  0.21975580  0.66117955     1.90100
O1772       O  0.15966549  0.18314689  0.66157840    -0.73800
O1773       O  0.17987210  0.15050153  0.60148863    -0.73600
O1774       O  0.16062120  0.17960991  0.59578983    -0.79300
O1775       O  0.21775259  0.17287982  0.58589585    -0.77500
O1776       O  0.20325871  0.19858433  0.62649066    -1.13600
O1777       O  0.25182841  0.21497029  0.61080893    -0.72800
C1778       C  0.25826779  0.21965336  0.64153458     0.97900
C1779       C  0.16483335  0.20420918  0.67095913     0.94300
Al1780     Al  0.17433650  0.17098743  0.63076506     1.55600
O1781       O  0.22743196  0.24923128  0.63405060    -0.77400
C1782       C  0.19851218  0.15235814  0.58739317     0.98500
C1783       C  0.19441878  0.17119948  0.69362251     0.93400
O1784       O  0.20299491  0.19415886  0.69565658    -0.82700
O1785       O  0.35317545  0.45101834  0.91907361    -0.82200
C1786       C  0.30800795  0.47785387  0.51982821     0.97200
O1787       O  0.32369447  0.47121738  0.52628338    -0.71300
O1788       O  0.31270995  0.42910735  0.99887252    -0.74900
Al1789     Al  0.34122231  0.45982043  0.99576733     1.49000
C1790       C  0.30371463  0.41289618  0.97655058     0.92400
O1791       O  0.29220084  0.44668176  0.91925360    -0.81100
O1792       O  0.35580610  0.50971045  0.92406559    -0.74700
Al1793     Al  0.32360395  0.45003324  0.92174034     1.90100
O1794       O  0.30518488  0.48571505  0.92393381    -0.73800
O1795       O  0.35616126  0.51355382  0.99068392    -0.73600
O1796       O  0.30632559  0.48438949  0.99030409    -0.79300
O1797       O  0.37148655  0.48975066  0.49843680    -0.77500
O1798       O  0.33191445  0.46842276  0.95840523    -1.13600
O1799       O  0.35909576  0.44553817  0.97189640    -0.72800
C1800       C  0.36273801  0.44398908  0.94043906     0.97900
C1801       C  0.28918817  0.46454756  0.91422897     0.94300
Al1802     Al  0.33097591  0.49602846  0.95735321     1.55600
O1803       O  0.30790778  0.41854844  0.94553930    -0.77400
C1804       C  0.37288521  0.51017373  0.50206121     0.98500
C1805       C  0.35458540  0.50021947  0.89556705     0.93400
O1806       O  0.33901325  0.47775459  0.89024044    -0.82700
O1807       O  0.52501255  0.66147374  0.63663869    -0.82200
C1808       C  0.52448324  0.69287101  0.76547415     0.97200
O1809       O  0.51659822  0.69416639  0.73666946    -0.71300
O1810       O  0.51260146  0.69443387  0.67035507    -0.74900
Al1811     Al  0.50468449  0.66974357  0.70325233     1.49000
C1812       C  0.53255536  0.71144048  0.65936837     0.92400
O1813       O  0.58246666  0.69994654  0.69212139    -0.81100
O1814       O  0.54996093  0.63748967  0.71498884    -0.74700
Al1815     Al  0.55243300  0.68035209  0.66728264     1.90100
O1816       O  0.57266234  0.68444606  0.74312114    -0.73800
O1817       O  0.50881566  0.62882955  0.74430415    -0.73600
O1818       O  0.53127735  0.67718220  0.77072121    -0.79300
O1819       O  0.48640607  0.64524833  0.73639711    -0.77500
O1820       O  0.53278861  0.66939395  0.70358075    -1.13600
O1821       O  0.49208289  0.64530320  0.66995732    -0.72800
C1822       C  0.50258864  0.64551679  0.64252468     0.97900
C1823       C  0.58804235  0.69971816  0.72270784     0.94300
Al1824     Al  0.54013904  0.65801267  0.74009119     1.55600
O1825       O  0.55138495  0.70975225  0.66253126    -0.77400
C1826       C  0.48871835  0.62812587  0.74786454     0.98500
C1827       C  0.55623862  0.63755728  0.68441462     0.93400
O1828       O  0.55778823  0.65382484  0.66485707    -0.82700
O1829       O  0.66152566  0.52003241  0.61424078    -0.82200
C1830       C  0.68601805  0.51780958  0.98262359     0.97200
O1831       O  0.68750581  0.50930071  0.51055556    -0.71300
O1832       O  0.69148696  0.50798362  0.57684424    -0.74900
Al1833     Al  0.66470060  0.49894586  0.54616601     1.49000
C1834       C  0.70943936  0.52868210  0.58391532     0.92400
O1835       O  0.69379121  0.57752549  0.55554647    -0.81100
O1836       O  0.63495617  0.54702750  0.53683681    -0.74700
Al1837     Al  0.67725293  0.54714086  0.58124891     1.90100
O1838       O  0.67975980  0.56607567  0.50436735    -0.73800
O1839       O  0.62285700  0.50432071  0.00930920    -0.73600
O1840       O  0.67010288  0.52440517  0.97780569    -0.79300
O1841       O  0.63818655  0.48080698  0.51549146    -0.77500
O1842       O  0.66489088  0.52727077  0.54574672    -1.13600
O1843       O  0.64178704  0.48736515  0.58187601    -0.72800
C1844       C  0.64481459  0.49763728  0.61031733     0.97900
C1845       C  0.69325471  0.58252734  0.52470209     0.94300
Al1846     Al  0.65282293  0.53468835  0.51012317     1.55600
O1847       O  0.70759556  0.54736135  0.57982659    -0.77400
C1848       C  0.62110203  0.48382909  0.00587668     0.98500
C1849       C  0.63524656  0.55206759  0.56804338     0.93400
O1850       O  0.64984455  0.55057328  0.58789400    -0.82700
O1851       O  0.80338045  0.80174082  0.94689565    -0.82200
C1852       C  0.81368765  0.82865867  0.81471705     0.97200
O1853       O  0.82064807  0.83885949  0.84328822    -0.71300
O1854       O  0.82219151  0.84601611  0.90936299    -0.74900
Al1855     Al  0.82899042  0.82631081  0.88028678     1.49000
C1856       C  0.80270029  0.84554908  0.91673460     0.92400
O1857       O  0.75032311  0.78494049  0.88356492    -0.81100
O1858       O  0.77985899  0.74979673  0.87359805    -0.74700
Al1859     Al  0.77827312  0.79413239  0.91241328     1.90100
O1860       O  0.76112990  0.77433130  0.83678344    -0.73800
O1861       O  0.82252276  0.77810732  0.84603794    -0.73600
O1862       O  0.80494943  0.80554463  0.81161626    -0.79300
O1863       O  0.84694205  0.81696722  0.85124544    -0.77500
O1864       O  0.79952466  0.79937285  0.87911146    -1.13600
O1865       O  0.83763608  0.81386171  0.91727367    -0.72800
C1866       C  0.82519144  0.80540072  0.94419175     0.97900
C1867       C  0.74576448  0.77707314  0.85356269     0.94300
Al1868     Al  0.79254762  0.77865647  0.84495066     1.55600
O1869       O  0.78269295  0.82623577  0.91174508    -0.77400
C1870       C  0.84338182  0.79653660  0.84209691     0.98500
C1871       C  0.77164244  0.74554585  0.90360808     0.93400
O1872       O  0.76952746  0.76155603  0.91929782    -0.82700
C1873       C  0.70707705  0.60797947  0.51124957     0.00900
C1874       C  0.69428138  0.61696270  0.49220958     0.03800
C1875       C  0.70713110  0.63973024  0.97591305    -0.12300
C1876       C  0.73293453  0.65325793  0.97653853     0.23100
C1877       C  0.74579062  0.64484499  0.99628677    -0.12900
C1878       C  0.73287938  0.62261097  0.01444192     0.04500
C1879       C  0.74605482  0.67701085  0.95792296     0.26900
C1880       C  0.74815462  0.67750044  0.92241158    -0.13600
C1881       C  0.75676598  0.69965713  0.90432770     0.05000
C1882       C  0.76439156  0.72192853  0.92187330    -0.09500
C1883       C  0.76406589  0.72131538  0.95802218     0.05800
C1884       C  0.75418632  0.69897112  0.97557446    -0.13900
Br1885     Br  0.78112220  0.66379224  0.99817671    -0.06000
Br1886     Br  0.65886302  0.59874259  0.48928733    -0.00300
Br1887     Br  0.75645811  0.69844730  0.85559232     0.00100
Br1888     Br  0.75058755  0.69806197  0.52413163    -0.04300
Br1889     Br  0.75042213  0.61215265  0.54285460     0.00200
Br1890     Br  0.68928792  0.65277242  0.95271847    -0.03600
Br1891     Br  0.73835660  0.64731672  0.89866860    -0.04500
Br1892     Br  0.77767767  0.75054560  0.98545256    -0.00500
C1893       C  0.72182633  0.76985035  0.83733903     0.00900
C1894       C  0.72065653  0.78388446  0.81053953     0.03800
C1895       C  0.69955006  0.77446529  0.78998808    -0.12300
C1896       C  0.67894338  0.75126520  0.79691459     0.23100
C1897       C  0.67961035  0.73783425  0.82499327    -0.12900
C1898       C  0.70108239  0.74690603  0.84473780     0.04500
C1899       C  0.65691996  0.74055916  0.77422702     0.26900
C1900       C  0.63883587  0.74729444  0.77777096    -0.13600
C1901       C  0.61702352  0.73535263  0.75860648     0.05000
C1902       C  0.61312515  0.71668976  0.73563143    -0.09500
C1903       C  0.63200012  0.71136379  0.73009599     0.05800
C1904       C  0.65368252  0.72303251  0.74954258    -0.13900
Br1905     Br  0.65128451  0.70655552  0.83570760    -0.06000
Br1906     Br  0.74798822  0.81622327  0.80238779    -0.00300
Br1907     Br  0.59240548  0.74461062  0.76342753     0.00100
Br1908     Br  0.67860443  0.71429939  0.74336487    -0.04300
Br1909     Br  0.70274423  0.72727383  0.88072261     0.00200
Br1910     Br  0.69927798  0.79280542  0.75130583    -0.03600
Br1911     Br  0.64359699  0.77230761  0.80973380    -0.04500
Br1912     Br  0.62762818  0.68736506  0.69657769    -0.00500
C1913       C  0.56227580  0.61894691  0.67003900     0.00900
C1914       C  0.55846880  0.61271773  0.63495742     0.03800
C1915       C  0.56701183  0.59808703  0.62005649    -0.12300
C1916       C  0.57989007  0.58961697  0.63922404     0.23100
C1917       C  0.58253555  0.59436308  0.67428342    -0.12900
C1918       C  0.57374034  0.60878483  0.68969911     0.04500
C1919       C  0.59367672  0.57919509  0.62130581     0.26900
C1920       C  0.58239181  0.55415002  0.61247323    -0.13600
C1921       C  0.59544949  0.54531624  0.59347899     0.05000
C1922       C  0.61975797  0.56147688  0.58268450    -0.09500
C1923       C  0.63112569  0.58635495  0.59234541     0.05800
C1924       C  0.61814364  0.59514973  0.61115374    -0.13900
Br1925     Br  0.59938309  0.58185943  0.70073574    -0.06000
Br1926     Br  0.54203074  0.62415449  0.60547456    -0.00300
Br1927     Br  0.58088090  0.51081366  0.58437938     0.00100
Br1928     Br  0.63405594  0.62928212  0.62363827    -0.04300
Br1929     Br  0.57952826  0.61598338  0.73724744     0.00200
Br1930     Br  0.56217669  0.59038358  0.57238087    -0.03600
Br1931     Br  0.54929756  0.53192656  0.62719156    -0.04500
Br1932     Br  0.66514713  0.60847081  0.58133652    -0.00500
C1933       C  0.46812609  0.60798386  0.76699422     0.00900
C1934       C  0.44488994  0.59342282  0.75187646     0.03800
C1935       C  0.42540774  0.57453083  0.77045269    -0.12300
C1936       C  0.42850879  0.57100177  0.80484374     0.23100
C1937       C  0.45139670  0.58621769  0.82034184    -0.12900
C1938       C  0.47118546  0.60438621  0.80142526     0.04500
C1939       C  0.40785571  0.55138100  0.82492130     0.26900
C1940       C  0.38852115  0.55455614  0.83674394    -0.13600
C1941       C  0.37001979  0.53670277  0.85768490     0.05000
C1942       C  0.37131159  0.51613457  0.86838229    -0.09500
C1943       C  0.39046871  0.51281072  0.85608681     0.05800
C1944       C  0.40824092  0.53001380  0.83373923    -0.13900
Br1945     Br  0.45543755  0.58250144  0.86790911    -0.06000
Br1946     Br  0.43940743  0.59937493  0.70585752    -0.00300
Br1947     Br  0.34268626  0.54029583  0.87168914     0.00100
Br1948     Br  0.43375003  0.52478369  0.81589745    -0.04300
Br1949     Br  0.50195864  0.62558378  0.82362226     0.00200
Br1950     Br  0.39448041  0.55315068  0.74872896    -0.03600
Br1951     Br  0.38802908  0.58396033  0.82565403    -0.04500
Br1952     Br  0.39402965  0.48606413  0.87182090    -0.00500
C1953       C  0.48810666  0.62613511  0.61767945     0.00900
C1954       C  0.47830405  0.60141315  0.62708421     0.03800
C1955       C  0.46114949  0.58262057  0.60617801    -0.12300
C1956       C  0.45305759  0.58846103  0.57639200     0.23100
C1957       C  0.46370080  0.61311178  0.56624034    -0.12900
C1958       C  0.48201293  0.63183546  0.58616040     0.04500
C1959       C  0.43264875  0.56869383  0.55671387     0.26900
C1960       C  0.43752573  0.55873994  0.52787389    -0.13600
C1961       C  0.41802295  0.53969232  0.50973307     0.05000
C1962       C  0.39360893  0.53006345  0.52095115    -0.09500
C1963       C  0.38893253  0.53948099  0.55062252     0.05800
C1964       C  0.40828484  0.55917421  0.56783840    -0.13900
Br1965     Br  0.45199179  0.62129334  0.52629068    -0.06000
Br1966     Br  0.48915822  0.59325892  0.66804927    -0.00300
Br1967     Br  0.42471248  0.52717918  0.46916256     0.00100
Br1968     Br  0.40150827  0.57320225  0.60688338    -0.04300
Br1969     Br  0.49872996  0.66510558  0.57021475     0.00200
Br1970     Br  0.44815341  0.54881809  0.61867946    -0.03600
Br1971     Br  0.47101520  0.57110623  0.51371306    -0.04500
Br1972     Br  0.35648881  0.52400680  0.06974157    -0.00500
C1973       C  0.23671603  0.27736938  0.58742919     0.00900
C1974       C  0.25620966  0.29953694  0.60021143     0.03800
C1975       C  0.26495482  0.32153763  0.58167169    -0.12300
C1976       C  0.25499116  0.32141402  0.54967385     0.23100
C1977       C  0.23486597  0.29957959  0.53774154    -0.12900
C1978       C  0.22520525  0.27805551  0.55713603     0.04500
C1979       C  0.26633748  0.34380422  0.52785740     0.26900
C1980       C  0.25445945  0.35738729  0.52259930    -0.13600
C1981       C  0.26549797  0.37856084  0.50212711     0.05000
C1982       C  0.28923206  0.38716218  0.98825456    -0.09500
C1983       C  0.30095309  0.37340453  0.99321527     0.05800
C1984       C  0.28904916  0.35134375  0.51179528    -0.13900
Br1985     Br  0.22184167  0.29874158  0.99327739    -0.06000
Br1986     Br  0.27193052  0.29985567  0.64202547    -0.00300
Br1987     Br  0.24878406  0.39614979  0.99257534     0.00100
Br1988     Br  0.30466963  0.33194963  0.51648886    -0.04300
Br1989     Br  0.19516889  0.24992139  0.54260281     0.00200
Br1990     Br  0.29111209  0.35188815  0.59955708    -0.03600
Br1991     Br  0.22365360  0.34772993  0.54478235    -0.04500
Br1992     Br  0.33363791  0.38511372  0.97630062    -0.00500
C1993       C  0.51019513  0.36399426  0.89055023     0.00900
C1994       C  0.53396190  0.36762765  0.89574336     0.03800
C1995       C  0.55067422  0.38653048  0.91697973    -0.12300
C1996       C  0.54360688  0.40152827  0.93404405     0.23100
C1997       C  0.51948152  0.39702630  0.93070834    -0.12900
C1998       C  0.50278479  0.37832847  0.90908293     0.04500
C1999       C  0.56207530  0.42300553  0.95365057     0.26900
C2000       C  0.56747864  0.42022252  0.98726833    -0.13600
C2001       C  0.58618897  0.44033968  0.00485362     0.05000
C2002       C  0.59950104  0.46343090  0.98897672    -0.09500
C2003       C  0.59331341  0.46637487  0.95571901     0.05800
C2004       C  0.57483299  0.44616202  0.93806178    -0.13900
Br2005     Br  0.50994235  0.41764139  0.95437927    -0.06000
Br2006     Br  0.54370408  0.34647117  0.87411567    -0.00300
Br2007     Br  0.59310660  0.43623718  0.55090496     0.00100
Br2008     Br  0.56752527  0.44981414  0.89183029    -0.04300
Br2009     Br  0.47056392  0.37399550  0.90361919     0.00200
Br2010     Br  0.58384350  0.39292279  0.92123607    -0.03600
Br2011     Br  0.54942835  0.38865454  0.00887420    -0.04500
Br2012     Br  0.61092494  0.49766286  0.93323310    -0.00500
C2013       C  0.52807961  0.39530511  0.74146290     0.00900
C2014       C  0.55236432  0.40625421  0.75406670     0.03800
C2015       C  0.57221003  0.42498275  0.73568706    -0.12300
C2016       C  0.56829404  0.43251844  0.70400082     0.23100
C2017       C  0.54414738  0.42204728  0.69160056    -0.12900
C2018       C  0.52412784  0.40373842  0.71027384     0.04500
C2019       C  0.58966821  0.45014871  0.68267067     0.26900
C2020       C  0.59707885  0.47522391  0.68164742    -0.13600
C2021       C  0.61630636  0.49141973  0.65984196     0.05000
C2022       C  0.62831162  0.48258611  0.63869788    -0.09500
C2023       C  0.62205309  0.45780826  0.64192466     0.05800
C2024       C  0.60256288  0.44165138  0.66314890    -0.13900
Br2025     Br  0.53876522  0.43210808  0.64798661    -0.06000
Br2026     Br  0.55886103  0.39575388  0.79658348    -0.00300
Br2027     Br  0.62529171  0.52537552  0.65875774     0.00100
Br2028     Br  0.59290598  0.40747401  0.66466070    -0.04300
Br2029     Br  0.49165730  0.38894788  0.69114529     0.00200
Br2030     Br  0.60509715  0.44024513  0.75349210    -0.03600
Br2031     Br  0.58027794  0.48712325  0.70968254    -0.04500
Br2032     Br  0.64097709  0.44597704  0.61854734    -0.00500
C2033       C  0.28248789  0.22446777  0.65407899     0.00900
C2034       C  0.30400945  0.24663230  0.64617222     0.03800
C2035       C  0.32489819  0.25546630  0.66711167    -0.12300
C2036       C  0.32430818  0.24229154  0.69626533     0.23100
C2037       C  0.30346642  0.21920658  0.70256118    -0.12900
C2038       C  0.28293341  0.21014200  0.68108576     0.04500
C2039       C  0.34465462  0.25368458  0.72154256     0.26900
C2040       C  0.36361137  0.24803360  0.72188028    -0.13600
C2041       C  0.38365672  0.26048062  0.74407010     0.05000
C2042       C  0.38558708  0.27951915  0.76469835    -0.09500
C2043       C  0.36585091  0.28394326  0.76616866     0.05800
C2044       C  0.34528867  0.27081035  0.74501923    -0.13900
Br2045     Br  0.30221146  0.20095672  0.74225135    -0.06000
Br2046     Br  0.30416873  0.26570471  0.60819739    -0.00300
Br2047     Br  0.40863527  0.25152389  0.74685801     0.00100
Br2048     Br  0.31822847  0.27681109  0.74722712    -0.04300
Br2049     Br  0.25496729  0.17811326  0.68889390     0.00200
Br2050     Br  0.35380799  0.28651735  0.65738082    -0.03600
Br2051     Br  0.36279945  0.22422494  0.69079500    -0.04500
Br2052     Br  0.36746416  0.30874103  0.79600487    -0.00500
C2053       C  0.42892117  0.37177940  0.83683763     0.00900
C2054       C  0.41261841  0.36218022  0.86497084     0.03800
C2055       C  0.40585488  0.37694309  0.88314336    -0.12300
C2056       C  0.41396312  0.40104779  0.87271652     0.23100
C2057       C  0.42944563  0.41056975  0.84416786    -0.12900
C2058       C  0.43722140  0.39614988  0.82653692     0.04500
C2059       C  0.40264288  0.41428737  0.88897964     0.26900
C2060       C  0.37879080  0.40786118  0.87928884    -0.13600
C2061       C  0.36530686  0.41574101  0.89835095     0.05000
C2062       C  0.37620021  0.43216194  0.92599995    -0.09500
C2063       C  0.40038524  0.43896260  0.93538516     0.05800
C2064       C  0.41337603  0.42965012  0.91727075    -0.13900
Br2065     Br  0.43956960  0.44326517  0.82910395    -0.06000
Br2066     Br  0.39776426  0.32821700  0.87848725    -0.00300
Br2067     Br  0.33098351  0.40162332  0.88724100     0.00100
Br2068     Br  0.44575995  0.43752008  0.93107154    -0.04300
Br2069     Br  0.45976967  0.41025195  0.78912584     0.00200
Br2070     Br  0.38444868  0.36386265  0.92215548    -0.03600
Br2071     Br  0.36417798  0.38720537  0.84008680    -0.04500
Br2072     Br  0.41583501  0.46117286  0.97240156    -0.00500
C2073       C  0.56686923  0.94912853  0.92290249     0.00900
C2074       C  0.54881041  0.95221797  0.90669701     0.03800
C2075       C  0.55568396  0.97123167  0.88293071    -0.12300
C2076       C  0.58075122  0.98856287  0.87740874     0.23100
C2077       C  0.59874713  0.98656182  0.89594125    -0.12900
C2078       C  0.59185326  0.96646896  0.91764667     0.04500
C2079       C  0.58848478  0.00917993  0.85284294     0.26900
C2080       C  0.60069410  0.00986453  0.82241078    -0.13600
C2081       C  0.61245985  0.03154738  0.80291541     0.05000
C2082       C  0.61154424  0.05233998  0.81339125    -0.09500
C2083       C  0.59585860  0.05009535  0.84024253     0.05800
C2084       C  0.58529898  0.02911880  0.86091578    -0.13900
Br2085     Br  0.63299908  0.01109800  0.89103662    -0.06000
Br2086     Br  0.51462778  0.92948759  0.91612595    -0.00300
Br2087     Br  0.63038474  0.03307515  0.76258577     0.00100
Br2088     Br  0.56842750  0.02878387  0.90181528    -0.04300
Br2089     Br  0.61669191  0.96190598  0.93890740     0.00200
Br2090     Br  0.53083275  0.97236150  0.85619865    -0.03600
Br2091     Br  0.60247209  0.98158861  0.80851859    -0.04500
Br2092     Br  0.58803213  0.07550080  0.84720231    -0.00500
C2093       C  0.53350546  0.73297315  0.64217521     0.00900
C2094       C  0.51311688  0.73009104  0.62315768     0.03800
C2095       C  0.51486059  0.74985359  0.60460270    -0.12300
C2096       C  0.53565174  0.77331903  0.60761077     0.23100
C2097       C  0.55542854  0.77674851  0.62784086    -0.12900
C2098       C  0.55477170  0.75660809  0.64418868     0.04500
C2099       C  0.53672711  0.79393382  0.58810228     0.26900
C2100       C  0.54966872  0.80107455  0.55728994    -0.13600
C2101       C  0.54755535  0.81766973  0.53608112     0.05000
C2102       C  0.53159923  0.82638345  0.54462817    -0.09500
C2103       C  0.51955792  0.82022614  0.57618192     0.05800
C2104       C  0.52252131  0.80437903  0.59819013    -0.13900
Br2105     Br  0.58350317  0.80921050  0.63282305    -0.06000
Br2106     Br  0.48221692  0.69953059  0.62167717    -0.00300
Br2107     Br  0.56663453  0.82839670  0.99509587     0.00100
Br2108     Br  0.50637334  0.79604586  0.64161302    -0.04300
Br2109     Br  0.58298547  0.76225954  0.67024238     0.00200
Br2110     Br  0.48920628  0.74462292  0.57323610    -0.03600
Br2111     Br  0.56909925  0.78692352  0.54304691    -0.04500
Br2112     Br  0.49753077  0.83179823  0.58801896    -0.00500
C2113       C  0.52568478  0.71025036  0.79273035     0.00900
C2114       C  0.54106489  0.71574913  0.82156058     0.03800
C2115       C  0.54436017  0.73446661  0.84425752    -0.12300
C2116       C  0.53184745  0.74734536  0.83948606     0.23100
C2117       C  0.51535493  0.74101436  0.81252178    -0.12900
C2118       C  0.51212888  0.72268162  0.78933236     0.04500
C2119       C  0.53603851  0.76788234  0.86241048     0.26900
C2120       C  0.52104178  0.76340788  0.89104046    -0.13600
C2121       C  0.52314970  0.78308363  0.91044408     0.05000
C2122       C  0.53941975  0.80759769  0.90032982    -0.09500
C2123       C  0.55504176  0.81196049  0.87216802     0.05800
C2124       C  0.55365503  0.79215156  0.85384342    -0.13900
Br2125     Br  0.49721365  0.75799397  0.80750493    -0.06000
Br2126     Br  0.55825212  0.69840696  0.83109649    -0.00300
Br2127     Br  0.50394840  0.77603583  0.95138076     0.00100
Br2128     Br  0.57519960  0.79808507  0.81582947    -0.04300
Br2129     Br  0.48791222  0.71479930  0.75422948     0.00200
Br2130     Br  0.56659458  0.74319272  0.88186147    -0.03600
Br2131     Br  0.49672082  0.73019509  0.90260519    -0.04500
Br2132     Br  0.57684848  0.84480137  0.85613869    -0.00500
C2133       C  0.80347188  0.86722308  0.93281925     0.00900
C2134       C  0.82162044  0.88121364  0.95727887     0.03800
C2135       C  0.82016132  0.89937805  0.97589823    -0.12300
C2136       C  0.80127458  0.90446003  0.96955746     0.23100
C2137       C  0.78418409  0.89181693  0.94377302    -0.12900
C2138       C  0.78546355  0.87349285  0.92510912     0.04500
C2139       C  0.79957479  0.92291289  0.49094142     0.26900
C2140       C  0.78659454  0.91566710  0.52172970    -0.13600
C2141       C  0.78870226  0.93342828  0.54496529     0.05000
C2142       C  0.80387991  0.95857810  0.53758695    -0.09500
C2143       C  0.81530741  0.96580665  0.50567678     0.05800
C2144       C  0.81331338  0.94799576  0.98226749    -0.13900
Br2145     Br  0.75876544  0.89937348  0.93466852    -0.06000
Br2146     Br  0.84879666  0.87611159  0.96619458    -0.00300
Br2147     Br  0.77104405  0.92320763  0.58733429     0.00100
Br2148     Br  0.83088446  0.95771606  0.93993105    -0.04300
Br2149     Br  0.76387833  0.85861498  0.88707304     0.00200
Br2150     Br  0.84364483  0.91689684  0.51149703    -0.03600
Br2151     Br  0.76733116  0.88135394  0.53299558    -0.04500
Br2152     Br  0.83517779  0.00004329  0.49469572    -0.00500
C2153       C  0.81558611  0.84454867  0.78540324     0.00900
C2154       C  0.80105542  0.83486284  0.75587816     0.03800
C2155       C  0.79868024  0.85067439  0.73303566    -0.12300
C2156       C  0.81124657  0.87607001  0.73884234     0.23100
C2157       C  0.82770277  0.88594378  0.76587583    -0.12900
C2158       C  0.83058385  0.87046285  0.78835225     0.04500
C2159       C  0.80728048  0.89282771  0.71705967     0.26900
C2160       C  0.82274202  0.90428702  0.68917497    -0.13600
C2161       C  0.82154096  0.92298999  0.67162747     0.05000
C2162       C  0.80528983  0.93095988  0.68261721    -0.09500
C2163       C  0.78915487  0.91867644  0.71006493     0.05800
C2164       C  0.79013213  0.89962349  0.72696543    -0.13900
Br2165     Br  0.84567583  0.92101022  0.77277062    -0.06000
Br2166     Br  0.78423934  0.80029976  0.74559659    -0.00300
Br2167     Br  0.84217276  0.93709429  0.63224953     0.00100
Br2168     Br  0.76917594  0.88377983  0.76554760    -0.04300
Br2169     Br  0.85662916  0.88580087  0.82139524     0.00200
Br2170     Br  0.77743083  0.83769660  0.69434625    -0.03600
Br2171     Br  0.84665744  0.89521539  0.67652697    -0.04500
Br2172     Br  0.76698483  0.92882960  0.72722932    -0.00500
C2173       C  0.77169278  0.04184664  0.67212828     0.00900
C2174       C  0.77705463  0.04995285  0.70618683     0.03800
C2175       C  0.76673283  0.06299874  0.72100855    -0.12300
C2176       C  0.74752317  0.06413265  0.70476750     0.23100
C2177       C  0.74023230  0.05374869  0.67224369    -0.12900
C2178       C  0.75309414  0.04390596  0.65533819     0.04500
C2179       C  0.73469298  0.07573394  0.72205602     0.26900
C2180       C  0.71951852  0.06468126  0.75060068    -0.13600
C2181       C  0.70763268  0.07585354  0.76681351     0.05000
C2182       C  0.70882181  0.09699858  0.75276271    -0.09500
C2183       C  0.72337758  0.10741971  0.72334103     0.05800
C2184       C  0.73725159  0.09768366  0.70942732    -0.13900
Br2185     Br  0.71143861  0.05142257  0.65180445    -0.06000
Br2186     Br  0.79582799  0.04095057  0.73495410    -0.00300
Br2187     Br  0.68845852  0.06095524  0.80704946     0.00100
Br2188     Br  0.75998088  0.11450007  0.67279064    -0.04300
Br2189     Br  0.74297348  0.03044493  0.61059075     0.00200
Br2190     Br  0.77902497  0.07944027  0.76372405    -0.03600
Br2191     Br  0.71375420  0.03332648  0.76625471    -0.04500
Br2192     Br  0.72406318  0.13455163  0.70046324    -0.00500
C2193       C  0.61494090  0.90678768  0.99793382     0.00900
C2194       C  0.62233130  0.92526278  0.52303309     0.03800
C2195       C  0.64351126  0.93229103  0.54248518    -0.12300
C2196       C  0.65750689  0.92089022  0.53766144     0.23100
C2197       C  0.65048250  0.90285502  0.51225903    -0.12900
C2198       C  0.62987826  0.89644585  0.99172317     0.04500
C2199       C  0.68149861  0.93063180  0.55572563     0.26900
C2200       C  0.70332073  0.94594541  0.53813340    -0.13600
C2201       C  0.72609301  0.95632167  0.55461199     0.05000
C2202       C  0.72744584  0.95426128  0.59042226    -0.09500
C2203       C  0.70531012  0.93857817  0.60806052     0.05800
C2204       C  0.68265760  0.92619416  0.59046168    -0.13900
Br2205     Br  0.66949459  0.88694485  0.00585725    -0.06000
Br2206     Br  0.60486721  0.94279783  0.52969164    -0.00300
Br2207     Br  0.75489025  0.97200053  0.52591831     0.00100
Br2208     Br  0.65287888  0.90345223  0.61387738    -0.04300
Br2209     Br  0.62281060  0.87411566  0.95463295     0.00200
Br2210     Br  0.65392666  0.95835557  0.57522608    -0.03600
Br2211     Br  0.70188049  0.95394625  0.49126349    -0.04500
Br2212     Br  0.70512974  0.93462411  0.65638446    -0.00500
C2213       C  0.51235622  0.14880092  0.63915519     0.00900
C2214       C  0.50451853  0.12749032  0.65880915     0.03800
C2215       C  0.52120723  0.12566337  0.68037457    -0.12300
C2216       C  0.54542700  0.14537710  0.68327680     0.23100
C2217       C  0.55234561  0.16763827  0.66678633    -0.12900
C2218       C  0.53585739  0.16935392  0.64474682     0.04500
C2219       C  0.56419793  0.14187110  0.70075077     0.26900
C2220       C  0.56951652  0.14791099  0.73506430    -0.13600
C2221       C  0.58792247  0.14517480  0.75095814     0.05000
C2222       C  0.60076534  0.13583713  0.73274412    -0.09500
C2223       C  0.59452267  0.12876005  0.69868698     0.05800
C2224       C  0.57670841  0.13230818  0.68261619    -0.13900
Br2225     Br  0.58490348  0.19530262  0.67302651    -0.06000
Br2226     Br  0.47158711  0.10015123  0.65520043    -0.00300
Br2227     Br  0.59471177  0.15346636  0.79809035     0.00100
Br2228     Br  0.56993227  0.12495719  0.63516676    -0.04300
Br2229     Br  0.54546076  0.19996770  0.62223632     0.00200
Br2230     Br  0.51157346  0.09556165  0.70424123    -0.03600
Br2231     Br  0.55162612  0.16015208  0.75999655    -0.04500
Br2232     Br  0.61084538  0.11508505  0.67316975    -0.00500
C2233       C  0.53185411  0.13064799  0.99036984     0.00900
C2234       C  0.52822382  0.12110718  0.95724622     0.03800
C2235       C  0.54764841  0.12117139  0.93946473    -0.12300
C2236       C  0.57114897  0.13160166  0.95400986     0.23100
C2237       C  0.57475180  0.14070968  0.98730467    -0.12900
C2238       C  0.55516958  0.14018304  0.00547265     0.04500
C2239       C  0.59238531  0.13525678  0.93280465     0.26900
C2240       C  0.59986306  0.11771404  0.93211381    -0.13600
C2241       C  0.61856289  0.12045218  0.90961084     0.05000
C2242       C  0.62856896  0.13989355  0.88582646    -0.09500
C2243       C  0.62312703  0.15889526  0.88967888     0.05800
C2244       C  0.60484100  0.15635864  0.91255963    -0.13900
Br2245     Br  0.60681400  0.15461803  0.00741828    -0.06000
Br2246     Br  0.49750700  0.11044866  0.93444135    -0.00300
Br2247     Br  0.63068332  0.09797473  0.91291971     0.00100
Br2248     Br  0.59624992  0.18155889  0.91562214    -0.04300
Br2249     Br  0.56039721  0.15281212  0.05092503     0.00200
Br2250     Br  0.54242026  0.10777085  0.89442633    -0.03600
Br2251     Br  0.58362675  0.08941888  0.96108678    -0.04500
Br2252     Br  0.64253195  0.18970880  0.86646120    -0.00500
C2253       C  0.46164290  0.26172119  0.85223395     0.00900
C2254       C  0.45420627  0.25597844  0.88632565     0.03800
C2255       C  0.45527944  0.23673396  0.90251204    -0.12300
C2256       C  0.46367819  0.22303270  0.88478404     0.23100
C2257       C  0.46933986  0.22754179  0.85011752    -0.12900
C2258       C  0.46851048  0.24695925  0.83393434     0.04500
C2259       C  0.46921384  0.20608304  0.90378967     0.26900
C2260       C  0.49158155  0.21576889  0.92126900    -0.13600
C2261       C  0.49579263  0.20090540  0.94338894     0.05000
C2262       C  0.47760402  0.17602483  0.94823900    -0.09500
C2263       C  0.45639633  0.16571440  0.92760215     0.05800
C2264       C  0.45194334  0.18089303  0.90620449    -0.13900
Br2265     Br  0.47863316  0.20732059  0.82512828    -0.06000
Br2266     Br  0.44415942  0.27544443  0.91185429    -0.00300
Br2267     Br  0.52699069  0.21488434  0.96633934     0.00100
Br2268     Br  0.42153192  0.16757357  0.88165513    -0.04300
Br2269     Br  0.47651208  0.25317303  0.78658647     0.00200
Br2270     Br  0.44617719  0.22958860  0.94954655    -0.03600
Br2271     Br  0.51607026  0.24992877  0.91590567    -0.04500
Br2272     Br  0.43304650  0.13122850  0.42852467    -0.00500
C2273       C  0.47713133  0.29694540  0.70278427     0.00900
C2274       C  0.49691496  0.29245543  0.69998664     0.03800
C2275       C  0.49590363  0.27519757  0.67667233    -0.12300
C2276       C  0.47536789  0.26253000  0.65560549     0.23100
C2277       C  0.45658977  0.26834870  0.65628062    -0.12900
C2278       C  0.45770249  0.28595701  0.67920412     0.04500
C2279       C  0.47268496  0.24178832  0.63476460     0.26900
C2280       C  0.48337126  0.24582641  0.60237598    -0.13600
C2281       C  0.48196601  0.22612765  0.58382038     0.05000
C2282       C  0.46922414  0.20215572  0.59723348    -0.09500
C2283       C  0.45767767  0.19811234  0.62921853     0.05800
C2284       C  0.45992920  0.21794295  0.64814403    -0.13900
Br2285     Br  0.42861865  0.25091769  0.62701231    -0.06000
Br2286     Br  0.52611355  0.31052759  0.72707380    -0.00300
Br2287     Br  0.49704223  0.23202106  0.53971991     0.00100
Br2288     Br  0.44660544  0.21273150  0.69341100    -0.04300
Br2289     Br  0.43216989  0.29418869  0.67816538     0.00200
Br2290     Br  0.52209722  0.26786031  0.67468136    -0.03600
Br2291     Br  0.50029963  0.27850032  0.58394171    -0.04500
Br2292     Br  0.43977605  0.16574569  0.64868083    -0.00500
C2293       C  0.27958476  0.04752685  0.91240520     0.00900
C2294       C  0.28043750  0.05487512  0.94670941     0.03800
C2295       C  0.30301316  0.06954195  0.96309571    -0.12300
C2296       C  0.32519843  0.07684838  0.94615469     0.23100
C2297       C  0.32478545  0.07099083  0.91171146    -0.12900
C2298       C  0.30217833  0.05604674  0.89501603     0.04500
C2299       C  0.34818962  0.08652660  0.96640716     0.26900
C2300       C  0.36394381  0.11186892  0.97168606    -0.13600
C2301       C  0.38503501  0.12026743  0.99212004     0.05000
C2302       C  0.39028119  0.10329947  0.50740892    -0.09500
C2303       C  0.37406025  0.07803809  0.50313739     0.05800
C2304       C  0.35315121  0.06972374  0.98278923    -0.13900
Br2305     Br  0.35550143  0.08300031  0.88797483    -0.06000
Br2306     Br  0.25123728  0.04439853  0.97342971    -0.00300
Br2307     Br  0.40728239  0.15478498  0.49789705     0.00100
Br2308     Br  0.33135567  0.03501402  0.97670149    -0.04300
Br2309     Br  0.30281511  0.04483734  0.84995515     0.00200
Br2310     Br  0.30386589  0.07852466  0.50993696    -0.03600
Br2311     Br  0.35662878  0.13491226  0.95083619    -0.04500
Br2312     Br  0.38062210  0.05488125  0.52544962    -0.00500
C2313       C  0.19657074  0.03936274  0.96474976     0.00900
C2314       C  0.21009027  0.06469551  0.95735458     0.03800
C2315       C  0.21089612  0.08183977  0.98066149    -0.12300
C2316       C  0.19864979  0.07396250  0.01188388     0.23100
C2317       C  0.18674553  0.04890933  0.02047442    -0.12900
C2318       C  0.18603012  0.03164661  0.99715301     0.04500
C2319       C  0.19719797  0.09200393  0.53446960     0.26900
C2320       C  0.21643592  0.10621699  0.55701360    -0.13600
C2321       C  0.21666860  0.12558396  0.57503627     0.05000
C2322       C  0.19731779  0.13052543  0.57117608    -0.09500
C2323       C  0.17719466  0.11505419  0.55022580     0.05800
C2324       C  0.17760208  0.09645707  0.53118016    -0.13900
Br2325     Br  0.17011539  0.03812286  0.56343188    -0.06000
Br2326     Br  0.22917043  0.07627137  0.91621594    -0.00300
Br2327     Br  0.24313148  0.14464543  0.60592066     0.00100
Br2328     Br  0.15213138  0.07789059  0.99881473    -0.04300
Br2329     Br  0.17043374  0.99763020  0.00967238     0.00200
Br2330     Br  0.22809397  0.11623189  0.96940587    -0.03600
Br2331     Br  0.24288401  0.09954962  0.56206026    -0.04500
Br2332     Br  0.14917751  0.11946764  0.54606228    -0.00500
C2333       C  0.19402751  0.15633641  0.72312470     0.00900
C2334       C  0.17766625  0.13058929  0.72285074     0.03800
C2335       C  0.18138860  0.11543611  0.74483089    -0.12300
C2336       C  0.20063466  0.12571784  0.76827726     0.23100
C2337       C  0.21491818  0.15126900  0.77173321    -0.12900
C2338       C  0.21132726  0.16668446  0.74974222     0.04500
C2339       C  0.20524249  0.10920115  0.78941928     0.26900
C2340       C  0.19135803  0.09907933  0.81893794    -0.13600
C2341       C  0.19171956  0.07957348  0.83527539     0.05000
C2342       C  0.20634394  0.07026511  0.82230238    -0.09500
C2343       C  0.22189265  0.08197185  0.79416776     0.05800
C2344       C  0.22110276  0.10124596  0.77765504    -0.13900
Br2345     Br  0.23991232  0.16488569  0.80604869    -0.06000
Br2346     Br  0.14897187  0.11534632  0.69407750    -0.00300
Br2347     Br  0.17194688  0.06594786  0.87541954     0.00100
Br2348     Br  0.24058476  0.11593410  0.73751188    -0.04300
Br2349     Br  0.23041860  0.20161050  0.75693110     0.00200
Br2350     Br  0.16044543  0.08025567  0.74228051    -0.03600
Br2351     Br  0.17089026  0.11137436  0.83577015    -0.04500
Br2352     Br  0.24296318  0.07079233  0.77593197    -0.00500
C2353       C  0.36942417  0.85328185  0.61661033     0.00900
C2354       C  0.38190302  0.87427970  0.59588927     0.03800
C2355       C  0.40034099  0.87662792  0.57328894    -0.12300
C2356       C  0.40617775  0.85793316  0.57079688     0.23100
C2357       C  0.39232378  0.83612527  0.58925743    -0.12900
C2358       C  0.37397276  0.83374053  0.61191856     0.04500
C2359       C  0.42791340  0.86186174  0.55063536     0.26900
C2360       C  0.42508799  0.85255355  0.51758292    -0.13600
C2361       C  0.44568167  0.85568507  0.49919490     0.05000
C2362       C  0.46932196  0.86809243  0.51377720    -0.09500
C2363       C  0.47218790  0.87812590  0.54656378     0.05800
C2364       C  0.45152853  0.87476076  0.56496821    -0.13900
Br2365     Br  0.39926278  0.80987209  0.58448308    -0.06000
Br2366     Br  0.37511140  0.90062542  0.59941494    -0.00300
Br2367     Br  0.44177685  0.84434933  0.95339399    -0.03500
Br2368     Br  0.45530628  0.88689401  0.61066012    -0.04300
Br2369     Br  0.35485420  0.80334056  0.63622741     0.00200
Br2370     Br  0.41863539  0.90600315  0.54673779    -0.03600
Br2371     Br  0.39280844  0.83500046  0.49790889    -0.04500
Br2372     Br  0.50408916  0.89545336  0.56752553    -0.00500
C2373       C  0.49419155  0.86247662  0.86169162     0.00900
C2374       C  0.50322911  0.88371965  0.84134517     0.03800
C2375       C  0.48720361  0.88661713  0.81956332    -0.12300
C2376       C  0.46252906  0.86786376  0.81664447     0.23100
C2377       C  0.45429705  0.84562175  0.83391180    -0.12900
C2378       C  0.47006114  0.84285868  0.85615124     0.04500
C2379       C  0.44462602  0.87175739  0.79725877     0.26900
C2380       C  0.43023937  0.87962867  0.81439802    -0.13600
C2381       C  0.41065286  0.87978808  0.79777950     0.05000
C2382       C  0.40555893  0.87237846  0.76368497    -0.09500
C2383       C  0.42095330  0.86603157  0.74593650     0.05800
C2384       C  0.44039891  0.86562711  0.76273027    -0.13900
Br2385     Br  0.42091850  0.81926697  0.82804442    -0.06000
Br2386     Br  0.53725066  0.90904934  0.84291002    -0.00300
Br2387     Br  0.38967798  0.88820852  0.82286924     0.00100
Br2388     Br  0.46074016  0.85586293  0.73890969    -0.04300
Br2389     Br  0.45877665  0.81158679  0.87772126     0.00200
Br2390     Br  0.49848089  0.91672860  0.79493591    -0.03600
Br2391     Br  0.43680876  0.88913082  0.86128084    -0.04500
Br2392     Br  0.41539026  0.85800709  0.69856204    -0.00500
C2393       C  0.29002322  0.89563384  0.75160067     0.00900
C2394       C  0.29998583  0.91240420  0.77895449     0.03800
C2395       C  0.28570355  0.92027705  0.79620286    -0.12300
C2396       C  0.26176149  0.91283578  0.78543340     0.23100
C2397       C  0.25177792  0.89655821  0.75788253    -0.12900
C2398       C  0.26573688  0.88776686  0.74120453     0.04500
C2399       C  0.24925516  0.92551422  0.80003355     0.26900
C2400       C  0.23558668  0.91742792  0.83028293    -0.13600
C2401       C  0.22731832  0.93189205  0.84672477     0.05000
C2402       C  0.23347580  0.95522358  0.83363491    -0.09500
C2403       C  0.24828493  0.96350072  0.80373511     0.05800
C2404       C  0.25499930  0.94827900  0.78652590    -0.13900
Br2405     Br  0.21908405  0.88672926  0.74290522    -0.06000
Br2406     Br  0.33409913  0.92699284  0.79164674    -0.00300
Br2407     Br  0.20818209  0.91937760  0.88747850     0.00100
Br2408     Br  0.27363616  0.95917645  0.74481577    -0.04300
Br2409     Br  0.25133587  0.86472597  0.70464738     0.00200
Br2410     Br  0.29929359  0.94229095  0.83426974    -0.03600
Br2411     Br  0.22919659  0.88682253  0.84971843    -0.04500
Br2412     Br  0.26276846  0.99678244  0.78720448    -0.00500
C2413       C  0.43163870  0.05820134  0.58918129     0.00900
C2414       C  0.41206673  0.05059679  0.61284756     0.03800
C2415       C  0.40328662  0.02860564  0.63105359    -0.12300
C2416       C  0.41282890  0.01311071  0.62484787     0.23100
C2417       C  0.43216011  0.02041888  0.60129737    -0.12900
C2418       C  0.44206801  0.04320656  0.58439202     0.04500
C2419       C  0.40077702  0.98834197  0.64112818     0.26900
C2420       C  0.41107030  0.98348583  0.66961528    -0.13600
C2421       C  0.39845315  0.96041535  0.68598535     0.05000
C2422       C  0.37477668  0.94245734  0.67515528    -0.09500
C2423       C  0.36430163  0.94784299  0.64702144     0.05800
C2424       C  0.37762908  0.97014716  0.62950263    -0.13900
Br2425     Br  0.44459065  0.99881560  0.59165026    -0.06000
Br2426     Br  0.39593720  0.06935610  0.62012212    -0.00300
Br2427     Br  0.41432487  0.95306912  0.72179078     0.00100
Br2428     Br  0.36406325  0.97602782  0.58922716    -0.04300
Br2429     Br  0.47113821  0.05459237  0.55696986     0.00200
Br2430     Br  0.37756592  0.01922921  0.66444309    -0.03600
Br2431     Br  0.44239383  0.00863603  0.68631062    -0.04500
Br2432     Br  0.33092936  0.92565998  0.63273359    -0.00500
C2433       C  0.86344659  0.79501127  0.82464505     0.00900
C2434       C  0.85972338  0.78514898  0.79168303     0.03800
C2435       C  0.87987259  0.78843217  0.77211618    -0.12300
C2436       C  0.90371413  0.80045817  0.78580757     0.23100
C2437       C  0.90730528  0.80915213  0.81927510    -0.12900
C2438       C  0.88733167  0.80672268  0.83850745     0.04500
C2439       C  0.92507665  0.80529429  0.76408244     0.26900
C2440       C  0.93225379  0.78765092  0.76070669    -0.13600
C2441       C  0.95093327  0.79132123  0.73757105     0.05000
C2442       C  0.96223769  0.81255688  0.71693526    -0.09500
C2443       C  0.95572456  0.83077196  0.72185386     0.05800
C2444       C  0.93743559  0.82719045  0.74548397    -0.13900
Br2445     Br  0.93993270  0.82560135  0.83796486    -0.06000
Br2446     Br  0.82739838  0.76873832  0.77186329    -0.00300
Br2447     Br  0.95959569  0.76630064  0.73347977     0.00100
Br2448     Br  0.92880579  0.85214478  0.75222104    -0.04300
Br2449     Br  0.89290587  0.81967059  0.88384257     0.00200
Br2450     Br  0.87518836  0.77827926  0.72541711    -0.03600
Br2451     Br  0.91575813  0.75807704  0.78733243    -0.04500
Br2452     Br  0.97193468  0.86112511  0.69679793    -0.00500
C2453       C  0.93232475  0.80399255  0.57041759     0.00900
C2454       C  0.90848486  0.78483030  0.57890761     0.03800
C2455       C  0.88775997  0.78320025  0.56297903    -0.12300
C2456       C  0.89069975  0.80063505  0.53858661     0.23100
C2457       C  0.91423417  0.82040885  0.53128648    -0.12900
C2458       C  0.93495340  0.82236016  0.54738895     0.04500
C2459       C  0.86953112  0.79728028  0.01817474     0.26900
C2460       C  0.86450076  0.78460955  0.98734021    -0.13600
C2461       C  0.84786134  0.78529022  0.96460996     0.05000
C2462       C  0.83676914  0.79932294  0.97208415    -0.09500
C2463       C  0.83932486  0.80928414  0.00471455     0.05800
C2464       C  0.85611363  0.80865751  0.52754900    -0.13900
Br2465     Br  0.91803351  0.84440675  0.49793522    -0.06000
Br2466     Br  0.90385803  0.76161124  0.61379378    -0.00300
Br2467     Br  0.83943611  0.76607361  0.92374196     0.00100
Br2468     Br  0.86182110  0.82447960  0.57088165    -0.04300
Br2469     Br  0.96672944  0.85020018  0.53641726     0.00200
Br2470     Br  0.85522106  0.75698343  0.57401860    -0.03600
Br2471     Br  0.88168665  0.76764225  0.97539205    -0.04500
Br2472     Br  0.82011493  0.82370982  0.51820672    -0.00500
C2473       C  0.03881722  0.84960912  0.53388636     0.00900
C2474       C  0.03269087  0.84904527  0.49937673     0.03800
C2475       C  0.05114986  0.86379738  0.97583395    -0.12300
C2476       C  0.07571414  0.87808179  0.48567162     0.23100
C2477       C  0.08218688  0.87684903  0.51916392    -0.12900
C2478       C  0.06390265  0.86325072  0.54327620     0.04500
C2479       C  0.09443090  0.89754091  0.96367566     0.26900
C2480       C  0.10885150  0.89290203  0.94102779    -0.13600
C2481       C  0.12809176  0.91235873  0.92279972     0.05000
C2482       C  0.13337263  0.93671764  0.92766553    -0.09500
C2483       C  0.11749261  0.94085368  0.94871477     0.05800
C2484       C  0.09863658  0.92145298  0.96714091    -0.13900
Br2485     Br  0.11637651  0.89497456  0.53211672    -0.06000
Br2486     Br  0.99923431  0.82940611  0.48445642    -0.00300
Br2487     Br  0.14547455  0.90505185  0.88896697     0.00100
Br2488     Br  0.07865600  0.92767932  0.49814257    -0.04300
Br2489     Br  0.07408567  0.86377536  0.58909014     0.00200
Br2490     Br  0.04264190  0.86562108  0.92963858    -0.03600
Br2491     Br  0.10253614  0.85992905  0.93583002    -0.04500
Br2492     Br  0.12059030  0.97273780  0.95325140    -0.00500
C2493       C  0.15507197  0.96880867  0.78006211     0.00900
C2494       C  0.16362826  0.95870028  0.75524513     0.03800
C2495       C  0.14706968  0.94130397  0.73194737    -0.12300
C2496       C  0.12179461  0.93311726  0.73404632     0.23100
C2497       C  0.11332623  0.94374293  0.75773450    -0.12900
C2498       C  0.12987771  0.96201635  0.77981419     0.04500
C2499       C  0.10366661  0.91218541  0.71317125     0.26900
C2500       C  0.09230539  0.91625581  0.68541734    -0.13600
C2501       C  0.07274590  0.89635087  0.66861342     0.05000
C2502       C  0.06465468  0.87197698  0.67907483    -0.09500
C2503       C  0.07664698  0.86803392  0.70647369     0.05800
C2504       C  0.09594420  0.88806097  0.72342566    -0.13900
Br2505     Br  0.07855336  0.93212690  0.76113829    -0.06000
Br2506     Br  0.19740479  0.96673317  0.75421906    -0.00300
Br2507     Br  0.05730405  0.90318400  0.63145113     0.00100
Br2508     Br  0.11093348  0.88260579  0.76237083    -0.04300
Br2509     Br  0.11734536  0.97774599  0.80909073     0.00200
Br2510     Br  0.15864919  0.92772637  0.69780906    -0.03600
Br2511     Br  0.10306266  0.94939100  0.67139678    -0.04500
Br2512     Br  0.06545681  0.83549047  0.72361820    -0.00500
C2513       C  0.10837023  0.72414944  0.99596300     0.00900
C2514       C  0.10088179  0.73748623  0.97532343     0.03800
C2515       C  0.08950461  0.74973004  0.99003203    -0.12300
C2516       C  0.08554975  0.74873885  0.52527264     0.23100
C2517       C  0.09429982  0.73688979  0.54597182    -0.12900
C2518       C  0.10621934  0.72533768  0.53177364     0.04500
C2519       C  0.07114582  0.75881790  0.54143602     0.26900
C2520       C  0.08336014  0.78172788  0.55777841    -0.13600
C2521       C  0.07035580  0.78890862  0.57959454     0.05000
C2522       C  0.04478900  0.77377283  0.58386124    -0.09500
C2523       C  0.03263529  0.75079155  0.56742723     0.05800
C2524       C  0.04572395  0.74337588  0.54640195    -0.13900
Br2525     Br  0.08846838  0.73528665  0.59427544    -0.06000
Br2526     Br  0.10499801  0.73837929  0.92695992    -0.00300
Br2527     Br  0.08779141  0.81894332  0.60435060     0.00100
Br2528     Br  0.02895296  0.71166506  0.52495699    -0.04300
Br2529     Br  0.11968942  0.71178416  0.56295457     0.00200
Br2530     Br  0.07841640  0.76712473  0.96210631    -0.03600
Br2531     Br  0.11803633  0.80306072  0.55015025    -0.04500
Br2532     Br  0.99801543  0.72867021  0.57515097    -0.00500
C2533       C  0.27017764  0.79905229  0.65792543     0.00900
C2534       C  0.24695274  0.78692971  0.67371936     0.03800
C2535       C  0.22639194  0.76873072  0.65610010    -0.12300
C2536       C  0.22928588  0.76176571  0.62330848     0.23100
C2537       C  0.25268776  0.77344837  0.60798736    -0.12900
C2538       C  0.27279112  0.79261850  0.62468957     0.04500
C2539       C  0.20785631  0.74324049  0.60367129     0.26900
C2540       C  0.19798453  0.71798480  0.60961840    -0.13600
C2541       C  0.18044908  0.70065800  0.58728303     0.05000
C2542       C  0.17392534  0.70860874  0.55799332    -0.09500
C2543       C  0.18328115  0.73379898  0.55259677     0.05800
C2544       C  0.19936886  0.75097868  0.57612779    -0.13900
Br2545     Br  0.25720532  0.76341934  0.56364230    -0.06000
Br2546     Br  0.24348666  0.79510958  0.71953568    -0.00300
Br2547     Br  0.16669861  0.66611752  0.59532421     0.00100
Br2548     Br  0.21092774  0.78534608  0.56969585    -0.04300
Br2549     Br  0.30323387  0.81140365  0.60041496     0.00200
Br2550     Br  0.19416908  0.75393421  0.67621366    -0.03600
Br2551     Br  0.20989595  0.70723215  0.64674561    -0.04500
Br2552     Br  0.17525738  0.74501135  0.01166643    -0.00500
C2553       C  0.20681954  0.72933395  0.90854717     0.00900
C2554       C  0.20457667  0.73806902  0.87658734     0.03800
C2555       C  0.22563848  0.75524575  0.85866861    -0.12300
C2556       C  0.24919524  0.76401798  0.87229497     0.23100
C2557       C  0.25161173  0.75534320  0.90398359    -0.12900
C2558       C  0.23054956  0.73816091  0.92213592     0.04500
C2559       C  0.27118475  0.78246576  0.85293317     0.26900
C2560       C  0.28255148  0.77478601  0.82920480    -0.13600
C2561       C  0.30106571  0.79196604  0.80768588     0.05000
C2562       C  0.30688893  0.81672250  0.80750737    -0.09500
C2563       C  0.29701702  0.82474326  0.83338363     0.05800
C2564       C  0.27946454  0.80763043  0.85622726    -0.13900
Br2565     Br  0.28392591  0.76709663  0.92228778    -0.06000
Br2566     Br  0.17285831  0.72585883  0.85586383    -0.00300
Br2567     Br  0.31936244  0.78159109  0.77983422     0.00100
Br2568     Br  0.26568755  0.81827947  0.89130773    -0.04300
Br2569     Br  0.23438621  0.72782570  0.96640572     0.00200
Br2570     Br  0.22239535  0.76659315  0.81476527    -0.03600
Br2571     Br  0.27163105  0.74043396  0.82474185    -0.04500
Br2572     Br  0.30628832  0.85870390  0.83729344    -0.00500
C2573       C  0.90242090  0.61160452  0.74985469     0.00900
C2574       C  0.89192393  0.62667809  0.75257667     0.03800
C2575       C  0.90190996  0.64890707  0.73405292    -0.12300
C2576       C  0.92179540  0.65582360  0.71157058     0.23100
C2577       C  0.93218285  0.64080071  0.70863426    -0.12900
C2578       C  0.92339121  0.61957624  0.72855442     0.04500
C2579       C  0.93386482  0.68010884  0.69379605     0.26900
C2580       C  0.92432412  0.68380192  0.66357388    -0.13600
C2581       C  0.93650884  0.70680972  0.64680786     0.05000
C2582       C  0.95930896  0.72590235  0.65901352    -0.09500
C2583       C  0.96992502  0.72077916  0.68731451     0.05800
C2584       C  0.95653454  0.69893591  0.70575017    -0.13900
Br2585     Br  0.95896680  0.64961183  0.67720828    -0.06000
Br2586     Br  0.86360432  0.61685739  0.78072789    -0.00300
Br2587     Br  0.92174979  0.71152306  0.60717501     0.00100
Br2588     Br  0.96955595  0.69458696  0.74767310    -0.04300
Br2589     Br  0.94200026  0.60285606  0.72780187     0.00200
Br2590     Br  0.88874615  0.67031152  0.73965908    -0.03600
Br2591     Br  0.89488850  0.65692486  0.64479558    -0.04500
Br2592     Br  0.00410281  0.74174062  0.69940463    -0.00500
C2593       C  0.82178492  0.52261812  0.69723462     0.00900
C2594       C  0.79720841  0.50332753  0.69364407     0.03800
C2595       C  0.78113649  0.50574380  0.67157301    -0.12300
C2596       C  0.78970420  0.52673473  0.65121517     0.23100
C2597       C  0.81470629  0.54494447  0.65217121    -0.12900
C2598       C  0.83065307  0.54320030  0.67550193     0.04500
C2599       C  0.77179553  0.53025030  0.63107252     0.26900
C2600       C  0.76307388  0.51823515  0.59991181    -0.13600
C2601       C  0.74302443  0.51806962  0.58398545     0.05000
C2602       C  0.73206342  0.53069141  0.59863345    -0.09500
C2603       C  0.74194623  0.54400795  0.62883558     0.05800
C2604       C  0.76158976  0.54362504  0.64501135    -0.13900
Br2605     Br  0.82670318  0.57264827  0.62208040    -0.06000
Br2606     Br  0.78540685  0.47291072  0.71790403    -0.00300
Br2607     Br  0.73078908  0.50037124  0.54215293     0.00100
Br2608     Br  0.77386840  0.56047409  0.68741967    -0.04300
Br2609     Br  0.86396107  0.57003872  0.67867252     0.00200
Br2610     Br  0.74685948  0.48074782  0.67042400    -0.03600
Br2611     Br  0.77853927  0.50171352  0.57950545    -0.04500
Br2612     Br  0.72737957  0.56108539  0.65020967    -0.00500
C2613       C  0.80070905  0.52577250  0.85268418     0.00900
C2614       C  0.79135419  0.54149533  0.84636848     0.03800
C2615       C  0.77116616  0.53921064  0.86516272    -0.12300
C2616       C  0.75972276  0.52096398  0.89020505     0.23100
C2617       C  0.76869039  0.50494144  0.89621477    -0.12900
C2618       C  0.78903558  0.50733213  0.87775800     0.04500
C2619       C  0.74016061  0.52045361  0.91259853     0.26900
C2620       C  0.74714140  0.53653903  0.94033200    -0.13600
C2621       C  0.72922289  0.53664083  0.96159109     0.05000
C2622       C  0.70397580  0.52039936  0.95596370    -0.09500
C2623       C  0.69687383  0.50412188  0.92836316     0.05800
C2624       C  0.71487994  0.50416154  0.90671524    -0.13900
Br2625     Br  0.75352068  0.48017397  0.93081453    -0.06000
Br2626     Br  0.80530329  0.56550216  0.81087557    -0.00300
Br2627     Br  0.73918331  0.55912258  0.49858876     0.00100
Br2628     Br  0.70502868  0.48116310  0.86996777    -0.04300
Br2629     Br  0.80154616  0.48594002  0.88873973     0.00200
Br2630     Br  0.75931859  0.56149199  0.85726185    -0.03600
Br2631     Br  0.78154422  0.55770432  0.95012702    -0.04500
Br2632     Br  0.66256617  0.48080651  0.92165967    -0.00500
C2633       C  0.94793126  0.57283198  0.82157028     0.00900
C2634       C  0.95963412  0.59784129  0.83060688     0.03800
C2635       C  0.98137244  0.60854901  0.84961304    -0.12300
C2636       C  0.99139903  0.59428550  0.86040657     0.23100
C2637       C  0.98032157  0.56956056  0.85043520    -0.12900
C2638       C  0.95868082  0.55888389  0.83091733     0.04500
C2639       C  0.01434656  0.60585961  0.88070268     0.26900
C2640       C  0.03704785  0.61542054  0.86415474    -0.13600
C2641       C  0.05903876  0.62782833  0.88251426     0.05000
C2642       C  0.05862178  0.63160447  0.91797844    -0.09500
C2643       C  0.03558228  0.62205724  0.93443393     0.05800
C2644       C  0.01360262  0.60886193  0.91589400    -0.13900
Br2645     Br  0.99472042  0.55037661  0.86414501    -0.06000
Br2646     Br  0.94574606  0.61762968  0.81748604    -0.00300
Br2647     Br  0.08929629  0.63909452  0.85759635     0.00100
Br2648     Br  0.98222381  0.59539903  0.93835553    -0.04300
Br2649     Br  0.94314981  0.52494324  0.81849298     0.00200
Br2650     Br  0.99752633  0.64288036  0.86106410    -0.03600
Br2651     Br  0.03779724  0.61217974  0.81562333    -0.04500
Br2652     Br  0.03358012  0.62879386  0.98158037    -0.00500
C2653       C  0.72813843  0.19299422  0.85015596     0.00900
C2654       C  0.73721146  0.18879151  0.88049442     0.03800
C2655       C  0.75454755  0.20873984  0.89984778    -0.12300
C2656       C  0.76300373  0.23288628  0.88898885     0.23100
C2657       C  0.75459308  0.23718526  0.85844068    -0.12900
C2658       C  0.73730930  0.21742426  0.83901250     0.04500
C2659       C  0.78059155  0.25391913  0.90985090     0.26900
C2660       C  0.77190310  0.26369187  0.93451091    -0.13600
C2661       C  0.78856277  0.28294307  0.95534327     0.05000
C2662       C  0.81427893  0.29303749  0.95100459    -0.09500
C2663       C  0.82271058  0.28514168  0.92303748     0.05800
C2664       C  0.80591441  0.26485912  0.90377944    -0.13900
Br2665     Br  0.76622884  0.27044403  0.84400754    -0.06000
Br2666     Br  0.72462862  0.15600077  0.89746097    -0.00300
Br2667     Br  0.77544008  0.29607843  0.48823926     0.00100
Br2668     Br  0.81742211  0.25134183  0.86939291    -0.04300
Br2669     Br  0.72652031  0.22458018  0.79717682     0.00200
Br2670     Br  0.76606364  0.20324226  0.94217291    -0.03600
Br2671     Br  0.73697359  0.25059111  0.93938588    -0.04500
Br2672     Br  0.85683930  0.30170883  0.90950099    -0.00500
C2673       C  0.80837685  0.27235793  0.60636455     0.00900
C2674       C  0.79877215  0.24741272  0.59835502     0.03800
C2675       C  0.77874980  0.22903156  0.61697720    -0.12300
C2676       C  0.76825722  0.23541748  0.64378065     0.23100
C2677       C  0.77796429  0.26025000  0.65199913    -0.12900
C2678       C  0.79792428  0.27858069  0.63357879     0.04500
C2679       C  0.74761618  0.21619080  0.66435794     0.26900
C2680       C  0.72299911  0.20674586  0.65441113    -0.13600
C2681       C  0.70355383  0.18968840  0.67511009     0.05000
C2682       C  0.70860498  0.18254249  0.70637704    -0.09500
C2683       C  0.73330793  0.19206134  0.71626006     0.05800
C2684       C  0.75265446  0.20853092  0.69516000    -0.13900
Br2685     Br  0.76366800  0.26910141  0.68867716    -0.06000
Br2686     Br  0.81218990  0.23840611  0.56093122    -0.00300
Br2687     Br  0.67002082  0.17724164  0.66159422     0.00100
Br2688     Br  0.78627030  0.22113929  0.70872877    -0.04300
Br2689     Br  0.81143151  0.31224539  0.64704438     0.00200
Br2690     Br  0.76528797  0.19500991  0.60566937    -0.03600
Br2691     Br  0.71605311  0.21820619  0.61316784    -0.04500
Br2692     Br  0.74095551  0.18200225  0.75836279    -0.00500
C2693       C  0.87003625  0.46874077  0.73061407     0.00900
C2694       C  0.88855141  0.47397542  0.70600679     0.03800
C2695       C  0.88900224  0.45479342  0.68848152    -0.12300
C2696       C  0.87164623  0.43029969  0.69593722     0.23100
C2697       C  0.85409977  0.42488746  0.72150045    -0.12900
C2698       C  0.85270429  0.44384991  0.73805223     0.04500
C2699       C  0.86905598  0.41040971  0.67324925     0.26900
C2700       C  0.85062128  0.40148075  0.64858071    -0.13600
C2701       C  0.84682957  0.38199970  0.62772134     0.05000
C2702       C  0.86334818  0.37294923  0.62850937    -0.09500
C2703       C  0.88120076  0.38116475  0.65454371     0.05800
C2704       C  0.88400004  0.39991446  0.67673853    -0.13900
Br2705     Br  0.83113534  0.39105468  0.73250312    -0.06000
Br2706     Br  0.91222569  0.50716958  0.69310515    -0.00300
Br2707     Br  0.81707692  0.36649118  0.60106411     0.00100
Br2708     Br  0.90878116  0.41189935  0.71139551    -0.04300
Br2709     Br  0.82620583  0.43473183  0.77002997     0.00200
Br2710     Br  0.91235941  0.46185545  0.65235244    -0.03600
Br2711     Br  0.83098737  0.41675096  0.64244110    -0.04500
Br2712     Br  0.90158568  0.36682600  0.66128066    -0.00500
C2713       C  0.86698735  0.39646900  0.97924159     0.00900
C2714       C  0.88697344  0.42038542  0.98447930     0.03800
C2715       C  0.88813632  0.44050132  0.96726746    -0.12300
C2716       C  0.86866392  0.43709536  0.94623644     0.23100
C2717       C  0.84767389  0.41364244  0.94363500    -0.12900
C2718       C  0.84710041  0.39331009  0.95902110     0.04500
C2719       C  0.87103246  0.45701006  0.92342722     0.26900
C2720       C  0.86625019  0.47529965  0.93486701    -0.13600
C2721       C  0.86548513  0.49197851  0.91172233     0.05000
C2722       C  0.86793293  0.48943398  0.87649908    -0.09500
C2723       C  0.87471531  0.47219560  0.86578437     0.05800
C2724       C  0.87633534  0.45629222  0.88907521    -0.13900
Br2725     Br  0.81978434  0.40945700  0.91810997    -0.06000
Br2726     Br  0.91208561  0.42590475  0.01671973    -0.00300
Br2727     Br  0.86111222  0.51799377  0.92908076     0.00100
Br2728     Br  0.88516739  0.43266893  0.87383075    -0.04300
Br2729     Br  0.81959250  0.36107807  0.94972612     0.00200
Br2730     Br  0.91660045  0.47264176  0.97195040    -0.03600
Br2731     Br  0.85956381  0.47658768  0.98215273    -0.04500
Br2732     Br  0.88323685  0.47054978  0.81942756    -0.00500
C2733       C  0.89558977  0.28251791  0.50116138     0.00900
C2734       C  0.91864459  0.28524498  0.50877757     0.03800
C2735       C  0.92901523  0.27503999  0.98715173    -0.12300
C2736       C  0.91554147  0.26042903  0.95943117     0.23100
C2737       C  0.89149458  0.25564605  0.95391697    -0.12900
C2738       C  0.88149678  0.26636775  0.97502072     0.04500
C2739       C  0.92579896  0.24801872  0.93867640     0.26900
C2740       C  0.93786325  0.25799917  0.90771648    -0.13600
C2741       C  0.94965570  0.24727757  0.89021455     0.05000
C2742       C  0.95124171  0.22781452  0.90518619    -0.09500
C2743       C  0.93812087  0.21731462  0.93550601     0.05800
C2744       C  0.92480372  0.22683906  0.95139960    -0.13900
Br2745     Br  0.87252753  0.23486082  0.91699623    -0.06000
Br2746     Br  0.93606959  0.30260046  0.54880600    -0.00300
Br2747     Br  0.96494356  0.26058203  0.84703253     0.00100
Br2748     Br  0.90599157  0.21159922  0.99183533    -0.04300
Br2749     Br  0.84742649  0.25683692  0.97097988     0.00200
Br2750     Br  0.96164938  0.28109432  0.49533712    -0.03600
Br2751     Br  0.93980817  0.28747573  0.89079302    -0.04500
Br2752     Br  0.93882156  0.19035077  0.95668235    -0.00500
C2753       C  0.14634215  0.20737787  0.69010936     0.00900
C2754       C  0.13055083  0.18887260  0.71305722     0.03800
C2755       C  0.11156845  0.19031710  0.72926606    -0.12300
C2756       C  0.10909672  0.21095909  0.72463410     0.23100
C2757       C  0.12537600  0.23007063  0.70324483    -0.12900
C2758       C  0.14406109  0.22841768  0.68597131     0.04500
C2759       C  0.09063836  0.21306703  0.74514738     0.26900
C2760       C  0.06692469  0.20463263  0.73243679    -0.13600
C2761       C  0.04794536  0.20158048  0.75435303     0.05000
C2762       C  0.05258395  0.20640854  0.78923668    -0.09500
C2763       C  0.07676015  0.21582737  0.80145044     0.05800
C2764       C  0.09577093  0.21969867  0.77928436    -0.13900
Br2765     Br  0.12196818  0.25850718  0.69807833    -0.06000
Br2766     Br  0.13628110  0.16278978  0.72616601    -0.00300
Br2767     Br  0.01531172  0.18831077  0.73676320     0.00100
Br2768     Br  0.12880130  0.23263392  0.79592951    -0.04300
Br2769     Br  0.16624584  0.25531508  0.65721556     0.00200
Br2770     Br  0.08899279  0.16407861  0.75869283    -0.03600
Br2771     Br  0.06028965  0.19568418  0.68541876    -0.04500
Br2772     Br  0.08424854  0.22275313  0.84876432    -0.00500
C2773       C  0.06525641  0.19962736  0.93959265     0.00900
C2774       C  0.08807843  0.22116939  0.94589197     0.03800
C2775       C  0.10667216  0.21973365  0.96356668    -0.12300
C2776       C  0.10258855  0.19704793  0.97558626     0.23100
C2777       C  0.07999187  0.17570623  0.96992606    -0.12900
C2778       C  0.06154459  0.17672620  0.95157613     0.04500
C2779       C  0.12065845  0.19569724  0.49788557     0.26900
C2780       C  0.13658400  0.18792828  0.98554766    -0.13600
C2781       C  0.15299702  0.18587303  0.50761946     0.05000
C2782       C  0.15287677  0.19076988  0.54250812    -0.09500
C2783       C  0.13627189  0.19807294  0.55454087     0.05800
C2784       C  0.12028302  0.20036535  0.53240793    -0.13900
Br2785     Br  0.07390681  0.14509663  0.98945203    -0.06000
Br2786     Br  0.09474560  0.25286529  0.93020243    -0.00300
Br2787     Br  0.17414974  0.17469695  0.48999831     0.00100
Br2788     Br  0.09684436  0.20900717  0.54955755    -0.04300
Br2789     Br  0.03108399  0.14603789  0.94506487     0.00200
Br2790     Br  0.13742504  0.24888008  0.47313957    -0.03600
Br2791     Br  0.13491037  0.17912906  0.93856831    -0.04500
Br2792     Br  0.13535614  0.20626327  0.60111282    -0.00500
C2793       C  0.87309818  0.06090508  0.57000976     0.00900
C2794       C  0.87670339  0.08491212  0.56938698     0.03800
C2795       C  0.89627899  0.10364620  0.55084969    -0.12300
C2796       C  0.91216805  0.09860235  0.53217683     0.23100
C2797       C  0.90983363  0.07543888  0.53399611    -0.12900
C2798       C  0.89064293  0.05657955  0.55281359     0.04500
C2799       C  0.92975448  0.11693243  0.00743624     0.26900
C2800       C  0.92144232  0.11811248  0.97494186    -0.13600
C2801       C  0.93783732  0.13473587  0.95102857     0.05000
C2802       C  0.96286473  0.14985237  0.95923408    -0.09500
C2803       C  0.97106180  0.14910716  0.99216248     0.05800
C2804       C  0.95439951  0.13251870  0.51641860    -0.13900
Br2805     Br  0.93294370  0.06955339  0.50938329    -0.06000
Br2806     Br  0.85539390  0.09339609  0.59355001    -0.00300
Br2807     Br  0.92521938  0.13841601  0.90841395     0.00100
Br2808     Br  0.96553328  0.13108275  0.56120897    -0.04300
Br2809     Br  0.88898846  0.02517205  0.55262949     0.00200
Br2810     Br  0.90152805  0.13646665  0.55022015    -0.03600
Br2811     Br  0.88741956  0.09671517  0.96323733    -0.04500
Br2812     Br  0.00490446  0.17012355  0.50466062    -0.00500
C2813       C  0.85399665  0.03682213  0.71366539     0.00900
C2814       C  0.87216511  0.03432251  0.73070063     0.03800
C2815       C  0.89148673  0.05467237  0.74728785    -0.12300
C2816       C  0.89073625  0.07654781  0.75114782     0.23100
C2817       C  0.87184217  0.07844723  0.73510430    -0.12900
C2818       C  0.85573541  0.05987777  0.71322250     0.04500
C2819       C  0.91019570  0.09784452  0.77038262     0.26900
C2820       C  0.91430919  0.09541955  0.80475625    -0.13600
C2821       C  0.93419904  0.11483651  0.82159346     0.05000
C2822       C  0.94605086  0.13869720  0.80739750    -0.09500
C2823       C  0.94034141  0.14157323  0.77390029     0.05800
C2824       C  0.92474332  0.12079614  0.75448863    -0.13900
Br2825     Br  0.86785059  0.10643749  0.74217628    -0.06000
Br2826     Br  0.87179857  0.00370022  0.72840694    -0.00300
Br2827     Br  0.94594510  0.10724168  0.86210399     0.00100
Br2828     Br  0.92508463  0.12354663  0.70586581    -0.04300
Br2829     Br  0.84085615  0.06832454  0.67735144     0.00200
Br2830     Br  0.92001626  0.05327451  0.76134458    -0.03600
Br2831     Br  0.89242256  0.06591802  0.82941478    -0.04500
Br2832     Br  0.95431674  0.17355773  0.75369753    -0.00500
C2833       C  0.06360323  0.42266050  0.64326035     0.00900
C2834       C  0.06668721  0.43162430  0.60982691     0.03800
C2835       C  0.04593632  0.42566337  0.58943272    -0.12300
C2836       C  0.02199185  0.40857904  0.60085207     0.23100
C2837       C  0.01911174  0.39854297  0.63349511    -0.12900
C2838       C  0.03940803  0.40688859  0.65525417     0.04500
C2839       C  0.99944617  0.40177726  0.58012921     0.26900
C2840       C  0.98266469  0.40902971  0.59082588    -0.13600
C2841       C  0.95866898  0.39758153  0.57746076     0.05000
C2842       C  0.95137194  0.37938896  0.55235908    -0.09500
C2843       C  0.96944702  0.37526717  0.53767596     0.05800
C2844       C  0.99312039  0.38577078  0.55222885    -0.13900
Br2845     Br  0.98694872  0.37371032  0.64904291    -0.06000
Br2846     Br  0.09913417  0.45471059  0.59363188    -0.00300
Br2847     Br  0.93583492  0.40730792  0.59279177     0.00100
Br2848     Br  0.01629849  0.37695174  0.53529812    -0.04300
Br2849     Br  0.03315695  0.39871768  0.70259439     0.00200
Br2850     Br  0.05010535  0.44283634  0.54753006    -0.03600
Br2851     Br  0.99229661  0.43400243  0.62493179    -0.04500
Br2852     Br  0.96192250  0.35503197  0.49803216    -0.00500
C2853       C  0.08428138  0.39790704  0.77555507     0.00900
C2854       C  0.09080435  0.40027605  0.80998527     0.03800
C2855       C  0.08506094  0.37927300  0.82935562    -0.12300
C2856       C  0.07124540  0.35570152  0.81505806     0.23100
C2857       C  0.06347918  0.35334132  0.78125449    -0.12900
C2858       C  0.07126855  0.37425120  0.76108966     0.04500
C2859       C  0.06547678  0.33315471  0.83437922     0.26900
C2860       C  0.07671871  0.31953654  0.82510695    -0.13600
C2861       C  0.06679220  0.29522128  0.83642777     0.05000
C2862       C  0.04697347  0.28515020  0.85937635    -0.09500
C2863       C  0.03823615  0.30009392  0.87247476     0.05800
C2864       C  0.04659515  0.32356370  0.85882865    -0.13900
Br2865     Br  0.04241456  0.32121271  0.76224478    -0.06000
Br2866     Br  0.11011758  0.43243249  0.82943174    -0.00300
Br2867     Br  0.07994377  0.27554018  0.81998261     0.00100
Br2868     Br  0.03056279  0.34152392  0.87131836    -0.04300
Br2869     Br  0.06602642  0.36996049  0.71294405     0.00200
Br2870     Br  0.09753333  0.38281404  0.87461297    -0.03600
Br2871     Br  0.10495610  0.33389581  0.79550572    -0.04500
Br2872     Br  0.01392023  0.28803494  0.90798814    -0.00500
C2873       C  0.18213164  0.46288809  0.78125881     0.00900
C2874       C  0.20178419  0.48398117  0.79695663     0.03800
C2875       C  0.21552145  0.48143468  0.82290069    -0.12300
C2876       C  0.21044592  0.45813195  0.83323834     0.23100
C2877       C  0.19060974  0.43715480  0.81891799    -0.12900
C2878       C  0.17649358  0.43938294  0.79304848     0.04500
C2879       C  0.22853147  0.45619701  0.85506888     0.26900
C2880       C  0.24838327  0.45571539  0.83951369    -0.13600
C2881       C  0.26801003  0.45815058  0.85905011     0.05000
C2882       C  0.26786988  0.46090692  0.89438173    -0.09500
C2883       C  0.24745614  0.46008615  0.91025717     0.05800
C2884       C  0.22779889  0.45781917  0.89058950    -0.13900
Br2885     Br  0.18325334  0.40531996  0.83473197    -0.06000
Br2886     Br  0.21223061  0.51700404  0.78215266    -0.00300
Br2887     Br  0.29557638  0.45876774  0.83689810     0.00100
Br2888     Br  0.20019474  0.45751836  0.91198932    -0.04300
Br2889     Br  0.14949152  0.40974694  0.77474103     0.00200
Br2890     Br  0.24239707  0.51007249  0.84377865    -0.03600
Br2891     Br  0.24909389  0.45273327  0.79100277    -0.04500
Br2892     Br  0.24652743  0.46189004  0.95884781    -0.00500
C2893       C  0.19425782  0.47761575  0.64357277     0.00900
C2894       C  0.19182371  0.47322607  0.60833041     0.03800
C2895       C  0.21097127  0.47332662  0.58942748    -0.12300
C2896       C  0.23284869  0.47790457  0.60538614     0.23100
C2897       C  0.23562976  0.48286089  0.64022464    -0.12900
C2898       C  0.21653958  0.48260800  0.65923813     0.04500
C2899       C  0.25333136  0.47834366  0.58549385     0.26900
C2900       C  0.25683650  0.45800510  0.58545830    -0.13600
C2901       C  0.27618507  0.45852995  0.56654741     0.05000
C2902       C  0.29152496  0.47900231  0.54616438    -0.09500
C2903       C  0.28855055  0.49978722  0.54752083     0.05800
C2904       C  0.26987523  0.49953713  0.56749467    -0.13900
Br2905     Br  0.26596345  0.49009589  0.66184528    -0.06000
Br2906     Br  0.16288025  0.46833796  0.58527205    -0.00300
Br2907     Br  0.28098989  0.43083651  0.56803449     0.00100
Br2908     Br  0.26687793  0.52837573  0.57047594    -0.04300
Br2909     Br  0.22117656  0.48790142  0.70720861     0.00200
Br2910     Br  0.20742897  0.46734567  0.54140600    -0.03600
Br2911     Br  0.23457207  0.42914908  0.61077737    -0.04500
Br2912     Br  0.31043837  0.52927725  0.02252171    -0.00500
C2913       C  0.12236159  0.52346128  0.65528093     0.00900
C2914       C  0.14176124  0.54791807  0.65189696     0.03800
C2915       C  0.14089117  0.56303699  0.62672703    -0.12300
C2916       C  0.12066492  0.55389947  0.60483427     0.23100
C2917       C  0.10069000  0.53001063  0.60921581    -0.12900
C2918       C  0.10111632  0.51508610  0.63519361     0.04500
C2919       C  0.11982899  0.57025613  0.57890837     0.26900
C2920       C  0.10733198  0.58290406  0.58597972    -0.13600
C2921       C  0.10895417  0.60075959  0.56339181     0.05000
C2922       C  0.12307992  0.60593991  0.53347248    -0.09500
C2923       C  0.13449344  0.59228946  0.52563812     0.05800
C2924       C  0.13307421  0.57464486  0.54850717    -0.13900
Br2925     Br  0.07287240  0.51780495  0.57928551    -0.06000
Br2926     Br  0.16853452  0.56176244  0.68379129    -0.00300
Br2927     Br  0.09327338  0.61917920  0.57539982     0.00100
Br2928     Br  0.15014110  0.55718756  0.53905838    -0.04300
Br2929     Br  0.07205365  0.48391070  0.64358443     0.00200
Br2930     Br  0.16730334  0.59653094  0.62240534    -0.03600
Br2931     Br  0.08916461  0.57665697  0.62778446    -0.04500
Br2932     Br  0.15166849  0.59742264  0.98308826    -0.00500
C2933       C  0.12918504  0.52512598  0.79065721     0.00900
C2934       C  0.11753046  0.53806464  0.78011710     0.03800
C2935       C  0.11959104  0.55775401  0.79931561    -0.12300
C2936       C  0.13322956  0.56479475  0.82940618     0.23100
C2937       C  0.14410812  0.55131489  0.84082494    -0.12900
C2938       C  0.14231074  0.53170732  0.82129527     0.04500
C2939       C  0.13538286  0.58602628  0.84901816     0.26900
C2940       C  0.15447499  0.61013404  0.84201633    -0.13600
C2941       C  0.15555232  0.63025808  0.85918212     0.05000
C2942       C  0.13798344  0.62637659  0.88411776    -0.09500
C2943       C  0.11853331  0.60233814  0.89042163     0.05800
C2944       C  0.11707198  0.58232859  0.87266258    -0.13900
Br2945     Br  0.16123110  0.55962965  0.88331403    -0.06000
Br2946     Br  0.09875422  0.52926236  0.73911109    -0.00300
Br2947     Br  0.18139111  0.66316968  0.84940583     0.00100
Br2948     Br  0.08992087  0.54970065  0.88055306    -0.04300
Br2949     Br  0.15797963  0.51393886  0.83609260     0.00200
Br2950     Br  0.10360772  0.57528094  0.78451780    -0.03600
Br2951     Br  0.17938945  0.61546891  0.80932784    -0.04500
Br2952     Br  0.09375090  0.59678532  0.92356108    -0.00500
loop_ 
_geom_bond_atom_site_label_1 
_geom_bond_atom_site_label_2 
_geom_bond_distance 
_geom_bond_site_symmetry_2 
_ccdc_geom_bond_type 
O1           C16   1.253       .  A
O1           Al9   1.870       .  S
C2           O12   1.272       .  A
C2            O3   1.289       .  A
C2         C1397   1.504       .  S
O3           Al5   1.987       .  S
O4            C6   1.252       .  A
O4           Al5   1.863       .  S
Al5          O13   1.919       .  S
Al5          O15   1.964       .  S
Al5          O14   1.775       .  S
C6           O19   1.268       .  A
C6         C1377   1.484       .  S
O7           C17   1.254       .  A
O7           Al9   1.926       .  S
O8           C21   1.277       .  A
O8          Al18   1.885       .  S
Al9          O22   1.954       .  S
Al9          O19   1.941       .  S
Al9          O14   1.775       .  S
O10          C17   1.249       .  A
O10         Al18   1.914       .  S
O11          C20   1.252       .  A
O11         Al18   1.925       .  S
O12         Al18   1.882       .  S
O13          C20   1.253       .  A
O14         Al18   1.774       .  S
O15          C16   1.272       .  A
C16        C1357   1.498       .  S
C17        C1457   1.490       .  S
C20        C1417   1.505       .  S
C21          O22   1.283       .  A
C21        C1437   1.480       .  S
O23          C38   1.268       .  A
O23         Al31   1.920   1_655  S
C24          O34   1.273       .  A
C24          O25   1.263       .  A
C24        C1286   1.482       .  S
O25         Al27   1.871       .  S
O26          C28   1.245       .  A
O26         Al27   1.865       .  S
Al27         O35   1.879   1_455  S
Al27         O37   1.893   1_455  S
Al27         O36   1.793       .  S
C28          O41   1.256       .  A
C28        C1297   1.495       .  S
O29          C39   1.260       .  A
O29         Al31   1.910       .  S
O30          C43   1.264       .  A
O30         Al40   1.928       .  S
Al31         O44   1.878   1_455  S
Al31         O41   1.915       .  S
Al31         O36   1.800       .  S
O32          C39   1.258       .  A
O32         Al40   1.896   1_455  S
O33          C42   1.257       .  A
O33         Al40   1.925       .  S
O34         Al40   1.944   1_455  S
O35          C42   1.245       .  A
O36         Al40   1.794   1_455  S
O37          C38   1.266       .  A
C38        C1326   1.476       .  S
C39        C1386   1.482       .  S
C42        C1346   1.488       .  S
C43          O44   1.256       .  A
C43        C1266   1.491       .  S
O45          C60   1.274       .  A
O45         Al53   1.957       .  S
C46          O56   1.271       .  A
C46        O1523   1.264       .  A
C46        C1186   1.497       .  S
O47        C1522   1.263   1_554  A
O47         Al49   1.887       .  S
O48          C50   1.255       .  A
O48         Al49   1.905       .  S
Al49         O57   1.908       .  S
Al49         O59   1.872       .  S
Al49         O58   1.776       .  S
C50          O63   1.261       .  A
C50        C1197   1.493       .  S
O51          C61   1.268       .  A
O51         Al53   1.940       .  S
O52          C65   1.265       .  A
O52         Al62   1.939   1_554  S
Al53         O66   1.903       .  S
Al53         O63   1.929       .  S
Al53         O58   1.787       .  S
O54          C61   1.259   1_556  A
O54         Al62   1.881       .  S
O55          C64   1.261       .  A
O55       Al1538   1.918       .  S
O56       Al1538   1.950       .  S
O57        C1540   1.257   1_554  A
O58         Al62   1.785   1_554  S
O59          C60   1.261       .  A
C60        C1226   1.496       .  S
C61        C1257   1.486       .  S
Al62       O1531   1.918       .  S
Al62       O1532   1.950       .  S
C64        O1533   1.256       .  A
C64        C1237   1.492       .  S
C65          O66   1.261       .  A
C65        C1366   1.499       .  S
O67          C82   1.253       .  A
O67         Al75   1.855       .  S
C68          O78   1.273       .  A
C68          O69   1.286       .  A
C68        C1246   1.507       .  S
O69         Al71   1.981       .  S
O70          C72   1.250       .  A
O70         Al71   1.863       .  S
Al71         O79   1.934       .  S
Al71         O81   1.978       .  S
Al71         O80   1.781       .  S
C72          O85   1.264       .  A
C72        C1157   1.482       .  S
O73          C83   1.251       .  A
O73         Al75   1.907       .  S
O74          C87   1.272       .  A
O74         Al84   1.890       .  S
Al75         O88   1.973       .  S
Al75         O85   1.937       .  S
Al75         O80   1.775       .  S
O76          C83   1.253       .  A
O76         Al84   1.925       .  S
O77          C86   1.250       .  A
O77         Al84   1.903       .  S
O78         Al84   1.888       .  S
O79          C86   1.258       .  A
O80         Al84   1.783       .  S
O81          C82   1.277       .  A
C82        C1097   1.507       .  S
C83        C1217   1.499       .  S
C86        C1137   1.504       .  S
C87          O88   1.282       .  A
C87        C1117   1.495       .  S
O89         C104   1.251       .  A
O89         Al97   1.860       .  S
C90         O100   1.269       .  A
C90          O91   1.291       .  A
C90        C1466   1.484       .  S
O91         Al93   1.995       .  S
O92          C94   1.251       .  A
O92         Al93   1.871       .  S
Al93        O101   1.904       .  S
Al93        O103   1.959       .  S
Al93        O102   1.769       .  S
C94         O107   1.264       .  A
C94        C1166   1.498       .  S
O95         C105   1.246       .  A
O95       Al1573   1.889   1_554  S
O96        C1585   1.271       .  A
O96        Al106   1.873       .  S
Al97        O107   1.930       .  S
Al97       O1571   1.889       .  S
Al97       O1586   1.974       .  S
Al97        O102   1.770       .  S
O98        C1581   1.252       .  A
O98        Al106   1.915       .  S
O99         C108   1.252       .  A
O99        Al106   1.925       .  S
O100       Al106   1.868       .  S
O101        C108   1.249       .  A
O102       Al106   1.788       .  S
O103        C104   1.271       .  A
C104       C1037   1.505       .  S
C105       O1574   1.252       .  A
C105       C1446   1.476       .  S
C108       C1077   1.494       .  S
C109        O110   1.285       .  A
C109       O1572   1.271       .  A
C109       C1066   1.473       .  S
O110      Al1573   1.974   1_554  S
O111        C126   1.252       .  A
O111       Al119   1.861   1_655  S
C112        O122   1.270       .  A
C112        O113   1.279       .  A
C112        C997   1.496       .  S
O113       Al115   1.962   1_455  S
O114        C116   1.251       .  A
O114       Al115   1.857   1_455  S
Al115       O123   1.916       .  S
Al115       O125   1.963       .  S
Al115       O124   1.783       .  S
C116        O129   1.269       .  A
C116       C1046   1.487       .  S
O117        C127   1.255       .  A
O117       Al119   1.909       .  S
O118        C131   1.268       .  A
O118       Al128   1.886       .  S
Al119       O132   1.978   1_455  S
Al119       O129   1.958       .  S
Al119       O124   1.771   1_455  S
O120        C127   1.254       .  A
O120       Al128   1.917   1_455  S
O121        C130   1.252       .  A
O121       Al128   1.892       .  S
O122       Al128   1.891   1_455  S
O123        C130   1.258       .  A
O124       Al128   1.783       .  S
O125        C126   1.270       .  A
C126       C1106   1.510       .  S
C127       C1026   1.493       .  S
C130        C977   1.489       .  S
C131        O132   1.281       .  A
C131        C966   1.498       .  S
O133        C148   1.276       .  A
O133       Al141   1.971       .  S
C134        O144   1.276       .  A
C134        O135   1.261       .  A
C134        C877   1.491       .  S
O135       Al137   1.877       .  S
O136        C138   1.263       .  A
O136       Al137   1.928       .  S
Al137       O145   1.934       .  S
Al137       O147   1.884       .  S
Al137       O146   1.774       .  S
C138        O151   1.259       .  A
C138        C906   1.479       .  S
O139        C149   1.273       .  A
O139       Al141   1.979       .  S
O140        C153   1.272       .  A
O140       Al150   1.973       .  S
Al141       O154   1.868       .  S
Al141       O151   1.900       .  S
Al141       O146   1.773       .  S
O142        C149   1.250       .  A
O142       Al150   1.856       .  S
O143        C152   1.257       .  A
O143       Al150   1.899       .  S
O144       Al150   1.968       .  S
O145        C152   1.263       .  A
O146       Al150   1.773       .  S
O147        C148   1.264       .  A
C148       C1086   1.498       .  S
C149        C946   1.499       .  S
C152       C1057   1.478       .  S
C153        O154   1.253       .  A
C153        C917   1.498       .  S
O155        C170   1.281       .  A
O155       Al163   1.972   1_545  S
C156        O166   1.282       .  A
C156        O157   1.263       .  A
C156       C1017   1.498       .  S
O157       Al159   1.868   1_565  S
O158        C160   1.250       .  A
O158       Al159   1.887   1_565  S
Al159       O167   1.916       .  S
Al159       O169   1.872       .  S
Al159       O168   1.780       .  S
C160        O173   1.259       .  A
C160       C1006   1.497       .  S
O161        C171   1.271       .  A
O161       Al163   1.961       .  S
O162        C175   1.269       .  A
O162       Al172   1.955       .  S
Al163       O176   1.874   1_565  S
Al163       O173   1.925       .  S
Al163       O168   1.785   1_565  S
O164        C171   1.252       .  A
O164       Al172   1.866   1_565  S
O165        C174   1.251       .  A
O165       Al172   1.901       .  S
O166       Al172   1.986   1_565  S
O167        C174   1.254       .  A
O168       Al172   1.773       .  S
O169        C170   1.266       .  A
C170        C837   1.486       .  S
C171        C926   1.513       .  S
C174        C866   1.486       .  S
C175        O176   1.253       .  A
C175        C817   1.510       .  S
O177        C192   1.279       .  A
O177      Al1661   1.968       .  S
C178        O188   1.277       .  A
C178        O179   1.268       .  A
C178        C737   1.482       .  S
O179       Al181   1.880       .  S
O180       C1658   1.256       .  A
O180       Al181   1.920       .  S
Al181       O189   1.921       .  S
Al181       O191   1.879       .  S
Al181       O190   1.786       .  S
C182        O195   1.256       .  A
C182       O1656   1.256       .  A
C182        C757   1.488       .  S
O183        C193   1.269       .  A
O183       Al185   1.955       .  S
O184        C197   1.263       .  A
O184       Al194   1.933       .  S
Al185       O198   1.869       .  S
Al185      O1653   1.968   1_554  S
Al185      O1671   1.911       .  S
Al185       O190   1.784       .  S
O186        C193   1.251       .  A
O186       Al194   1.862       .  S
O187        C196   1.251       .  A
O187       Al194   1.898       .  S
O188       Al194   1.960       .  S
O189        C196   1.255       .  A
O190       Al194   1.779       .  S
O191       C1668   1.267   1_554  A
C192       O1667   1.267       .  A
C192        C786   1.494       .  S
C193        C937   1.500       .  S
O195      Al1661   1.911       .  S
C196        C806   1.484       .  S
C197        O198   1.252       .  A
C197        C826   1.479       .  S
O199        C214   1.252       .  A
O199       Al207   1.865   1_565  S
C200        O210   1.266       .  A
C200        O201   1.292       .  A
C200       C1337   1.474       .  S
O201       Al203   1.996   1_545  S
O202        C204   1.251       .  A
O202       Al203   1.875   1_545  S
Al203       O211   1.905       .  S
Al203       O213   1.963       .  S
Al203       O212   1.767       .  S
C204        O217   1.270       .  A
C204        C697   1.498       .  S
O205        C215   1.264       .  A
O205       Al207   1.916       .  S
O206        C219   1.271       .  A
O206       Al216   1.869       .  S
Al207       O220   1.975   1_545  S
Al207       O217   1.949       .  S
Al207       O212   1.771   1_545  S
O208        C215   1.237       .  A
O208       Al216   1.890   1_545  S
O209        C218   1.247       .  A
O209       Al216   1.905       .  S
O210       Al216   1.851   1_545  S
O211        C218   1.247       .  A
O212       Al216   1.787       .  S
O213        C214   1.272       .  A
C214        C726   1.513       .  S
C215       C1317   1.504       .  S
C218        C686   1.492       .  S
C219        O220   1.285       .  A
C219        C666   1.479       .  S
O221        C236   1.251       .  A
O221      Al1705   1.861       .  S
C222        O232   1.270       .  A
C222        O223   1.280       .  A
C222        C897   1.492       .  S
O223       Al225   1.969       .  S
O224        C226   1.254       .  A
O224       Al225   1.867       .  S
Al225       O233   1.918       .  S
Al225       O235   1.951       .  S
Al225       O234   1.785       .  S
C226        O239   1.266       .  A
C226        C597   1.478       .  S
O227        C237   1.252       .  A
O227       Al229   1.906       .  S
O228       C1717   1.267       .  A
O228       Al238   1.879       .  S
Al229       O242   1.958   1_556  S
Al229      O1697   1.861   1_556  S
Al229      O1715   1.939       .  S
Al229      O1710   1.782       .  S
O230       C1713   1.254       .  A
O230       Al238   1.917       .  S
O231        C240   1.255       .  A
O231       Al238   1.914       .  S
O232       Al238   1.887       .  S
O233        C240   1.257       .  A
O234       Al238   1.783       .  S
O234      Al1705   1.782       .  S
O235        C236   1.267       .  A
C236        C717   1.499       .  S
C237       O1706   1.254       .  A
C237        C886   1.489   1_556  S
O239      Al1705   1.939       .  S
C240        C646   1.495       .  S
C241        O242   1.277       .  A
C241       O1704   1.267   1_554  A
C241        C626   1.480       .  S
O243        C258   1.253       .  A
O243       Al251   1.883       .  S
C244        O254   1.269       .  A
C244        O245   1.274       .  A
C244        C766   1.499       .  S
O245       Al247   1.960       .  S
O246        C248   1.260       .  A
O246       Al247   1.886       .  S
Al247       O255   1.924       .  S
Al247       O257   1.943       .  S
Al247       O256   1.786       .  S
C248        O261   1.267       .  A
C248        C606   1.486       .  S
O249        C259   1.253       .  A
O249       Al251   1.907       .  S
O250        C263   1.264       .  A
O250       Al260   1.884       .  S
Al251       O264   1.959       .  S
Al251       O261   1.937       .  S
Al251       O256   1.793       .  S
O252        C259   1.251       .  A
O252       Al260   1.900       .  S
O253        C262   1.252       .  A
O253       Al260   1.892       .  S
O254       Al260   1.898       .  S
O255        C262   1.261       .  A
O256       Al260   1.788       .  S
O257        C258   1.265       .  A
C258        C706   1.502       .  S
C259        C746   1.486       .  S
C262       C1177   1.485       .  S
C263        O264   1.277       .  A
C263       C1206   1.487       .  S
O265        C280   1.249       .  A
O265       Al273   1.851       .  S
C266        O276   1.265       .  A
C266        O267   1.275       .  A
C266        C797   1.490       .  S
O267       Al269   1.962       .  S
O268        C270   1.256       .  A
O268       Al269   1.881       .  S
Al269       O277   1.925       .  S
Al269       O279   1.959       .  S
Al269       O278   1.787       .  S
C270        O283   1.266       .  A
C270        C566   1.484       .  S
O271        C281   1.253       .  A
O271       Al273   1.897       .  S
O272        C285   1.264       .  A
O272       Al282   1.881       .  S
Al273       O286   1.960       .  S
Al273       O283   1.943       .  S
Al273       O278   1.784       .  S
O274        C281   1.259       .  A
O274       Al282   1.928       .  S
O275        C284   1.259       .  A
O275       Al282   1.924       .  S
O276       Al282   1.879       .  S
O277        C284   1.262       .  A
O278       Al282   1.781       .  S
O279        C280   1.269       .  A
C280        C577   1.498       .  S
C281        C777   1.484       .  S
C284        C537   1.500       .  S
C285        O286   1.275       .  A
C285        C517   1.488       .  S
O287        C302   1.255       .  A
O287       Al295   1.865       .  S
C288        O298   1.260       .  A
C288        O289   1.278       .  A
C288       C1306   1.494       .  S
O289       Al291   1.966       .  S
O290        C292   1.253       .  A
O290       Al291   1.873       .  S
Al291       O299   1.907       .  S
Al291       O301   1.956       .  S
Al291       O300   1.790       .  S
C292        O305   1.263       .  A
C292        C497   1.497       .  S
O293        C303   1.252       .  A
O293       Al295   1.887       .  S
O294        C307   1.260       .  A
O294       Al304   1.867       .  S
Al295       O308   1.956       .  S
Al295       O305   1.939       .  S
Al295       O300   1.797       .  S
O296        C303   1.258       .  A
O296       Al304   1.910       .  S
O297        C306   1.251       .  A
O297       Al304   1.898       .  S
O298       Al304   1.859       .  S
O299        C306   1.254       .  A
O300       Al304   1.787       .  S
O301        C302   1.270       .  A
C302        C557   1.487       .  S
C303       C1277   1.486       .  S
C306        C846   1.491       .  S
C307        O308   1.272       .  A
C307        C857   1.493       .  S
O309        C324   1.247       .  A
O309       Al317   1.839       .  S
C310        O311   1.283       .  A
C310       O1796   1.260   1_554  A
C310       C1426   1.498       .  S
O311      Al1789   1.995   1_554  S
O312        C314   1.253       .  A
O312       Al313   1.871       .  S
Al313       O323   2.001       .  S
Al313      O1787   1.994       .  S
Al313      O1797   1.904       .  S
Al313       O322   1.778       .  S
C314        O327   1.268       .  A
C314        C506   1.483       .  S
O315        C325   1.255       .  A
O315       Al317   1.887       .  S
O316        C329   1.262       .  A
O316       Al326   1.887       .  S
Al317       O330   1.963       .  S
Al317       O327   1.962       .  S
Al317       O322   1.767       .  S
O318        C325   1.264       .  A
O318       Al326   1.942       .  S
O319       C1804   1.263       .  A
O319       Al326   1.932       .  S
O320       C1786   1.260       .  A
O320       Al326   1.870       .  S
O321        C328   1.259   1_556  A
O321      Al1789   1.904       .  S
O322       Al326   1.779       .  S
O323        C324   1.278       .  A
C324        C586   1.499       .  S
C325       C1406   1.475       .  S
C328       O1795   1.263   1_554  A
C328        C486   1.483       .  S
C329        O330   1.274       .  A
C329        C466   1.486       .  S
O331        C346   1.278       .  A
O331       Al339   1.955       .  S
C332        O342   1.283       .  A
C332        O333   1.266       .  A
C332        C637   1.515       .  S
O333       Al335   1.881       .  S
O334        C336   1.250       .  A
O334       Al335   1.898       .  S
Al335       O343   1.909       .  S
Al335       O345   1.878       .  S
Al335       O344   1.786       .  S
C336        O349   1.253       .  A
C336        C617   1.499       .  S
O337        C347   1.265       .  A
O337       Al339   1.933       .  S
O338        C351   1.271       .  A
O338       Al348   1.966       .  S
Al339       O352   1.876       .  S
Al339       O349   1.906       .  S
Al339       O344   1.790       .  S
O340        C347   1.256       .  A
O340       Al348   1.887       .  S
O341        C350   1.254       .  A
O341       Al348   1.913       .  S
O342       Al348   1.984       .  S
O343        C350   1.251       .  A
O344       Al348   1.781       .  S
O345        C346   1.267       .  A
C346        C477   1.477       .  S
C347        C426   1.487       .  S
C350        C457   1.487       .  S
C351        O352   1.253       .  A
C351        C437   1.519       .  S
O353        C368   1.280       .  A
O353       Al361   1.978       .  S
C354        O364   1.283       .  A
C354       O1831   1.264       .  A
C354       C1146   1.493       .  S
O355       C1830   1.264   1_554  A
O355       Al357   1.877       .  S
O356        C358   1.258       .  A
O356       Al357   1.924       .  S
Al357       O365   1.915       .  S
Al357       O367   1.883       .  S
Al357       O366   1.788       .  S
C358        O371   1.256       .  A
C358       C1126   1.490       .  S
O359        C369   1.267       .  A
O359       Al361   1.947       .  S
O360        C373   1.274       .  A
O360       Al370   1.969       .  S
Al361       O374   1.867       .  S
Al361       O371   1.909       .  S
Al361       O366   1.784       .  S
O362        C369   1.252       .  A
O362       Al370   1.865       .  S
O363        C372   1.253       .  A
O363      Al1846   1.902       .  S
O364      Al1846   1.990       .  S
O365       C1848   1.255       .  A
O366       Al370   1.778       .  S
O367        C368   1.266       .  A
C368        C546   1.499       .  S
C369        C397   1.490       .  S
Al370      O1839   1.902       .  S
Al370      O1840   1.990   1_554  S
C372       O1841   1.255       .  A
C372        C526   1.484       .  S
C373        O374   1.253       .  A
C373        C446   1.493       .  S
O375        C390   1.280       .  A
O375       Al383   1.962       .  S
C376        O386   1.283       .  A
C376        O377   1.267       .  A
C376        C677   1.501       .  S
O377       Al379   1.868       .  S
O378        C380   1.249       .  A
O378       Al379   1.897       .  S
Al379       O387   1.903       .  S
Al379       O389   1.873       .  S
Al379       O388   1.780       .  S
C380        O393   1.253       .  A
C380        C657   1.491       .  S
O381        C391   1.264       .  A
O381       Al383   1.932       .  S
O382        C395   1.268       .  A
O382       Al392   1.946       .  S
Al383       O396   1.867       .  S
Al383       O393   1.907       .  S
Al383       O388   1.785       .  S
O384        C391   1.256       .  A
O384       Al392   1.890       .  S
O385        C394   1.252       .  A
O385       Al392   1.911       .  S
O386       Al392   1.976       .  S
O387        C394   1.249       .  A
O388       Al392   1.778       .  S
O389        C390   1.269       .  A
C390        C986   1.481       .  S
C391        C417   1.488       .  S
C394        C957   1.486       .  S
C395        O396   1.251       .  A
C395        C406   1.509       .  S
C397        C398   1.419   1_554  A
C397       C1878   1.411       .  A
C398       C1875   1.406       .  A
C398       Br410   1.934       .  S
C399        C400   1.407       .  A
C399       C1874   1.406       .  A
C399       Br414   1.935       .  S
C400        C403   1.494       .  S
C400        C401   1.413       .  A
C401        C402   1.415       .  A
C401       Br409   1.928       .  S
C402       C1873   1.411       .  A
C402      Br1889   1.925       .  S
C403        C404   1.411       .  A
C403        C408   1.402       .  A
C404        C405   1.416       .  A
C404       Br415   1.930       .  S
C405        C406   1.420       .  A
C405       Br411   1.931       .  S
C406        C407   1.432       .  A
C407        C408   1.408       .  A
C407       Br416   1.934       .  S
C408      Br1888   1.938       .  S
Br412      C1884   1.938   1_554  S
Br413      C1878   1.925       .  S
C417        C418   1.411       .  A
C417        C422   1.410       .  A
C418        C419   1.414       .  A
C418       Br430   1.924       .  S
C419        C420   1.412       .  A
C419       Br434   1.929       .  S
C420        C423   1.502       .  S
C420        C421   1.414       .  A
C421        C422   1.414       .  A
C421       Br429   1.928       .  S
C422       Br433   1.930       .  S
C423        C424   1.413       .  A
C423        C428   1.414       .  A
C424        C425   1.414       .  A
C424       Br435   1.928       .  S
C425        C426   1.411       .  A
C425       Br431   1.927       .  S
C426        C427   1.409       .  A
C427        C428   1.414       .  A
C427       Br436   1.929       .  S
C428       Br432   1.928       .  S
C437        C438   1.431       .  A
C437        C442   1.421       .  A
C438        C439   1.414       .  A
C438       Br450   1.933       .  S
C439        C440   1.404       .  A
C439       Br454   1.936       .  S
C440        C443   1.507       .  S
C440        C441   1.412       .  A
C441        C442   1.422       .  A
C441       Br449   1.928       .  S
C442       Br453   1.929       .  S
C443        C444   1.416       .  A
C443        C448   1.410       .  A
C444        C445   1.421       .  A
C444       Br455   1.926       .  S
C445        C446   1.412       .  A
C445       Br451   1.929       .  S
C446        C447   1.415       .  A
C447        C448   1.411       .  A
C447       Br456   1.929       .  S
C448       Br452   1.932       .  S
C457        C458   1.414       .  A
C457        C462   1.412       .  A
C458        C459   1.412       .  A
C458       Br470   1.929       .  S
C459        C460   1.411       .  A
C459       Br474   1.930       .  S
C460        C463   1.494       .  S
C460        C461   1.412       .  A
C461        C462   1.410       .  A
C461       Br469   1.932       .  S
C462       Br473   1.930       .  S
C463        C464   1.412       .  A
C463        C468   1.410       .  A
C464        C465   1.411       .  A
C464       Br475   1.929       .  S
C465        C466   1.411       .  A
C465       Br471   1.930       .  S
C466        C467   1.413       .  A
C467        C468   1.410       .  A
C467       Br476   1.922       .  S
C468       Br472   1.932       .  S
C477        C478   1.412       .  A
C477        C482   1.408       .  A
C478        C479   1.406       .  A
C478       Br490   1.933       .  S
C479        C480   1.409       .  A
C479       Br494   1.930       .  S
C480        C483   1.487       .  S
C480        C481   1.410       .  A
C481        C482   1.409       .  A
C481       Br489   1.928       .  S
C482       Br493   1.924       .  S
C483        C484   1.410       .  A
C483        C488   1.408       .  A
C484        C485   1.411       .  A
C484       Br495   1.928       .  S
C485        C486   1.411       .  A
C485       Br491   1.928   1_554  S
C486        C487   1.413       .  A
C487        C488   1.406       .  A
C487      Br1972   1.926       .  S
C488       Br492   1.933       .  S
Br496      C1963   1.926       .  S
C497        C498   1.414       .  A
C497        C502   1.417       .  A
C498        C499   1.417       .  A
C498       Br510   1.929       .  S
C499        C500   1.415       .  A
C499       Br514   1.929       .  S
C500        C503   1.497       .  S
C500        C501   1.406       .  A
C501        C502   1.406       .  A
C501      Br1985   1.934   1_554  S
C502       Br513   1.922       .  S
C503        C504   1.414       .  A
C503        C508   1.411       .  A
C504        C505   1.412       .  A
C504       Br515   1.927       .  S
C505       C1982   1.407   1_554  A
C505      Br1987   1.928   1_554  S
C506        C507   1.414       .  A
C506       C1981   1.408       .  A
C507       C1984   1.410       .  A
C507       Br516   1.924       .  S
C508       C1983   1.410   1_554  A
C508       Br512   1.934       .  S
Br509      C1977   1.934       .  S
Br511      C1981   1.928       .  S
C517        C518   1.414       .  A
C517        C522   1.416       .  A
C518        C519   1.407       .  A
C518       Br530   1.932       .  S
C519        C520   1.408       .  A
C519       Br534   1.930       .  S
C520        C523   1.488       .  S
C520        C521   1.408       .  A
C521        C522   1.411       .  A
C521       Br529   1.932       .  S
C522       Br533   1.924       .  S
C523        C524   1.408       .  A
C523        C528   1.409       .  A
C524        C525   1.410       .  A
C524       Br535   1.929       .  S
C525        C526   1.413       .  A
C525      Br2007   1.928       .  S
C526        C527   1.414       .  A
C527        C528   1.409       .  A
C527       Br536   1.930       .  S
C528       Br532   1.932       .  S
Br531      C2001   1.928       .  S
C537        C538   1.419       .  A
C537        C542   1.418       .  A
C538        C539   1.414       .  A
C538       Br550   1.931       .  S
C539        C540   1.409       .  A
C539       Br554   1.930       .  S
C540        C543   1.501       .  S
C540        C541   1.410       .  A
C541        C542   1.415       .  A
C541       Br549   1.931       .  S
C542       Br553   1.930       .  S
C543        C544   1.411       .  A
C543        C548   1.409       .  A
C544        C545   1.417       .  A
C544       Br555   1.929       .  S
C545        C546   1.418       .  A
C545       Br551   1.927       .  S
C546        C547   1.417       .  A
C547        C548   1.410       .  A
C547       Br556   1.934       .  S
C548       Br552   1.930       .  S
C557        C558   1.409       .  A
C557        C562   1.412       .  A
C558        C559   1.415       .  A
C558       Br570   1.927       .  S
C559        C560   1.414       .  A
C559       Br574   1.928       .  S
C560        C563   1.498       .  S
C560        C561   1.409       .  A
C561        C562   1.410       .  A
C561       Br569   1.929       .  S
C562       Br573   1.925       .  S
C563        C564   1.412       .  A
C563        C568   1.413       .  A
C564        C565   1.412       .  A
C564       Br575   1.926       .  S
C565        C566   1.409       .  A
C565       Br571   1.930       .  S
C566        C567   1.409       .  A
C567        C568   1.412       .  A
C567       Br576   1.925       .  S
C568       Br572   1.930       .  S
C577        C578   1.425       .  A
C577        C582   1.416       .  A
C578        C579   1.405       .  A
C578       Br590   1.937       .  S
C579        C580   1.405       .  A
C579       Br594   1.938       .  S
C580        C583   1.493       .  S
C580        C581   1.412       .  A
C581        C582   1.418       .  A
C581       Br589   1.927       .  S
C582       Br593   1.929       .  S
C583        C584   1.402       .  A
C583        C588   1.413       .  A
C584        C585   1.402       .  A
C584       Br595   1.939       .  S
C585        C586   1.426       .  A
C585       Br591   1.934       .  S
C586        C587   1.412       .  A
C587        C588   1.420       .  A
C587       Br596   1.923       .  S
C588       Br592   1.925       .  S
C597        C598   1.408       .  A
C597        C602   1.409       .  A
C598        C599   1.413       .  A
C598       Br610   1.930       .  S
C599        C600   1.414       .  A
C599       Br614   1.927       .  S
C600        C603   1.498   1_565  S
C600        C601   1.414       .  A
C601        C602   1.410       .  A
C601       Br609   1.932   1_565  S
C602       Br613   1.929       .  S
C603        C604   1.417       .  A
C603        C608   1.411       .  A
C604        C605   1.414       .  A
C604       Br615   1.929   1_545  S
C605        C606   1.409       .  A
C605       Br611   1.927       .  S
C606        C607   1.408       .  A
C607        C608   1.408       .  A
C607       Br616   1.926       .  S
C608       Br612   1.929       .  S
C617        C618   1.424       .  A
C617        C622   1.421       .  A
C618        C619   1.407       .  A
C618       Br630   1.934       .  S
C619        C620   1.406       .  A
C619       Br634   1.936       .  S
C620        C623   1.489       .  S
C620        C621   1.408       .  A
C621        C622   1.413       .  A
C621       Br629   1.931       .  S
C622       Br633   1.933       .  S
C623        C624   1.407       .  A
C623        C628   1.413       .  A
C624        C625   1.404       .  A
C624       Br635   1.931       .  S
C625        C626   1.412       .  A
C625      Br2107   1.926   1_554  S
C626        C627   1.409       .  A
C627        C628   1.412       .  A
C627       Br636   1.927       .  S
C628       Br632   1.928       .  S
Br631      C2101   1.926       .  S
C637        C638   1.426       .  A
C637        C642   1.433       .  A
C638        C639   1.416       .  A
C638       Br650   1.933       .  S
C639        C640   1.406       .  A
C639       Br654   1.930       .  S
C640        C643   1.495       .  S
C640        C641   1.404       .  A
C641        C642   1.411       .  A
C641       Br649   1.938       .  S
C642       Br653   1.940       .  S
C643        C644   1.408       .  A
C643        C648   1.409       .  A
C644        C645   1.411       .  A
C644       Br655   1.930       .  S
C645        C646   1.419       .  A
C645       Br651   1.933       .  S
C646        C647   1.417       .  A
C647        C648   1.412       .  A
C647       Br656   1.930       .  S
C648       Br652   1.930       .  S
C657        C658   1.420       .  A
C657        C662   1.415       .  A
C658        C659   1.407       .  A
C658       Br670   1.934       .  S
C659        C660   1.407       .  A
C659      Br2150   1.935       .  S
C660       C2139   1.487       .  S
C660        C661   1.408       .  A
C661        C662   1.411       .  A
C661       Br669   1.928       .  S
C662       Br673   1.931       .  S
C663       C2136   1.487       .  S
C663        C664   1.408   1_556  A
C663       C2144   1.411       .  A
C664        C665   1.406       .  A
C664       Br675   1.931       .  S
C665        C666   1.413       .  A
C665       Br671   1.933       .  S
C666        C667   1.410       .  A
C667       C2144   1.411   1_554  A
C667       Br676   1.927   1_564  S
C668       C2139   1.411       .  A
C668       C2143   1.411       .  A
C668       Br672   1.928       .  S
Br674      C2135   1.935   1_554  S
C677        C678   1.422       .  A
C677        C682   1.426       .  A
C678        C679   1.414       .  A
C678       Br690   1.933       .  S
C679        C680   1.407       .  A
C679       Br694   1.929       .  S
C680        C683   1.485       .  S
C680        C681   1.403       .  A
C681        C682   1.404       .  A
C681       Br689   1.936       .  S
C682       Br693   1.939       .  S
C683        C684   1.406       .  A
C683        C688   1.407       .  A
C684        C685   1.409       .  A
C684       Br695   1.931       .  S
C685        C686   1.420       .  A
C685       Br691   1.933       .  S
C686        C687   1.420       .  A
C687        C688   1.409       .  A
C687       Br696   1.933       .  S
C688       Br692   1.933       .  S
C697        C698   1.422       .  A
C697        C702   1.414       .  A
C698        C699   1.411       .  A
C698       Br710   1.929       .  S
C699        C700   1.409       .  A
C699       Br714   1.933       .  S
C700        C703   1.503       .  S
C700        C701   1.414       .  A
C701        C702   1.415       .  A
C701       Br709   1.930       .  S
C702       Br713   1.931       .  S
C703        C704   1.415       .  A
C703        C708   1.408       .  A
C704        C705   1.417       .  A
C704       Br715   1.931       .  S
C705        C706   1.417       .  A
C705       Br711   1.931       .  S
C706        C707   1.420       .  A
C707        C708   1.411       .  A
C707       Br716   1.924       .  S
C708       Br712   1.934       .  S
C717        C722   1.414       .  A
C717       C2194   1.423       .  A
C718        C719   1.409       .  A
C718       C2193   1.423   1_554  A
C718       Br730   1.937       .  S
C719        C720   1.408       .  A
C719       Br734   1.934       .  S
C720        C723   1.500       .  S
C720        C721   1.415       .  A
C721       C2198   1.417   1_554  A
C721      Br2205   1.930       .  S
C722       C2197   1.417       .  A
C722       Br733   1.928       .  S
C723        C724   1.403       .  A
C723        C728   1.413       .  A
C724        C725   1.406       .  A
C724       Br735   1.939   1_554  S
C725        C726   1.431       .  A
C725       Br731   1.935       .  S
C726        C727   1.421       .  A
C727        C728   1.421       .  A
C727       Br736   1.929       .  S
C728       Br732   1.929       .  S
Br729      C2197   1.930       .  S
C737        C738   1.413       .  A
C737        C742   1.413       .  A
C738        C739   1.408       .  A
C738       Br750   1.925       .  S
C739        C740   1.408       .  A
C739       Br754   1.930       .  S
C740        C743   1.485       .  S
C740        C741   1.408       .  A
C741        C742   1.407       .  A
C741       Br749   1.929       .  S
C742       Br753   1.932       .  S
C743        C744   1.406       .  A
C743        C748   1.408       .  A
C744        C745   1.409       .  A
C744       Br755   1.930       .  S
C745        C746   1.416       .  A
C745       Br751   1.928       .  S
C746        C747   1.414       .  A
C747        C748   1.408       .  A
C747       Br756   1.930       .  S
C748       Br752   1.932       .  S
C757        C758   1.414       .  A
C757        C762   1.413       .  A
C758        C759   1.410       .  A
C758       Br770   1.929       .  S
C759        C760   1.409       .  A
C759       Br774   1.931       .  S
C760        C763   1.494       .  S
C760        C761   1.411       .  A
C761        C762   1.414       .  A
C761       Br769   1.928       .  S
C762       Br773   1.929       .  S
C763        C764   1.410       .  A
C763        C768   1.408       .  A
C764        C765   1.415       .  A
C764       Br775   1.928       .  S
C765        C766   1.419       .  A
C765       Br771   1.932       .  S
C766        C767   1.416       .  A
C767        C768   1.408       .  A
C767       Br776   1.932       .  S
C768       Br772   1.931       .  S
C777        C778   1.414       .  A
C777        C782   1.412       .  A
C778        C779   1.409       .  A
C778       Br790   1.930       .  S
C779        C780   1.410       .  A
C779       Br794   1.932       .  S
C780        C783   1.491       .  S
C780        C781   1.410       .  A
C781        C782   1.411       .  A
C781       Br789   1.927       .  S
C782       Br793   1.928       .  S
C783        C784   1.408       .  A
C783        C788   1.409       .  A
C784        C785   1.407       .  A
C784       Br795   1.932       .  S
C785        C786   1.417       .  A
C785       Br791   1.934       .  S
C786        C787   1.418       .  A
C787        C788   1.413       .  A
C787      Br2272   1.929       .  S
C788       Br792   1.929       .  S
Br796      C2263   1.929       .  S
C797        C798   1.418       .  A
C797        C802   1.416       .  A
C798        C799   1.406       .  A
C798       Br810   1.934       .  S
C799        C800   1.406       .  A
C799       Br814   1.932       .  S
C800        C803   1.486       .  S
C800        C801   1.408       .  A
C801        C802   1.411       .  A
C801       Br809   1.930       .  S
C802       Br813   1.929       .  S
C803        C804   1.409       .  A
C803        C808   1.407       .  A
C804        C805   1.411       .  A
C804       Br815   1.928       .  S
C805        C806   1.414       .  A
C805       Br811   1.930       .  S
C806        C807   1.416       .  A
C807        C808   1.406       .  A
C807       Br816   1.931       .  S
C808       Br812   1.933       .  S
C817        C818   1.428       .  A
C817        C822   1.420       .  A
C818        C819   1.409       .  A
C818       Br830   1.926       .  S
C819        C820   1.402       .  A
C819      Br2310   1.936       .  S
C820        C823   1.495       .  S
C820        C821   1.410       .  A
C821        C822   1.418       .  A
C821       Br829   1.929       .  S
C822       Br833   1.927       .  S
C823        C824   1.413       .  A
C823        C828   1.411       .  A
C824        C825   1.415       .  A
C824       Br835   1.926       .  S
C825       C2302   1.411       .  A
C825      Br2307   1.929       .  S
C826        C827   1.408       .  A
C826       C2301   1.411   1_554  A
C827       C2304   1.407   1_554  A
C827       Br836   1.929       .  S
C828       C2303   1.407       .  A
C828       Br832   1.931       .  S
Br831      C2301   1.929       .  S
Br834      C2295   1.936   1_554  S
C837        C838   1.415       .  A
C837        C842   1.412       .  A
C838        C839   1.405       .  A
C838       Br850   1.933       .  S
C839        C840   1.407       .  A
C839       Br854   1.931       .  S
C840       C2319   1.490       .  S
C840        C841   1.411       .  A
C841        C842   1.413       .  A
C841      Br2325   1.928       .  S
C842       Br853   1.926   1_545  S
C843       C2316   1.490       .  S
C843        C844   1.409       .  A
C843        C848   1.408       .  A
C844        C845   1.412       .  A
C844       Br855   1.929       .  S
C845        C846   1.415       .  A
C845       Br851   1.929       .  S
C846        C847   1.418       .  A
C847        C848   1.409       .  A
C847       Br856   1.933       .  S
C848      Br2328   1.932   1_554  S
Br849      C2317   1.928       .  S
Br852      C2324   1.932       .  S
C857        C858   1.423       .  A
C857        C862   1.421       .  A
C858        C859   1.402       .  A
C858       Br870   1.939       .  S
C859        C860   1.404       .  A
C859       Br874   1.935       .  S
C860        C863   1.480       .  S
C860        C861   1.406       .  A
C861        C862   1.411       .  A
C861       Br869   1.929       .  S
C862       Br873   1.932       .  S
C863        C864   1.404       .  A
C863        C868   1.407       .  A
C864        C865   1.405       .  A
C864       Br875   1.931       .  S
C865        C866   1.417       .  A
C865       Br871   1.931       .  S
C866        C867   1.418       .  A
C867        C868   1.408       .  A
C867       Br876   1.933       .  S
C868       Br872   1.933       .  S
C877        C878   1.415       .  A
C877        C882   1.416       .  A
C878        C879   1.412       .  A
C878       Br890   1.926       .  S
C879        C880   1.410       .  A
C879       Br894   1.930       .  S
C880        C883   1.493       .  S
C880        C881   1.408       .  A
C881        C882   1.409       .  A
C881       Br889   1.930       .  S
C882       Br893   1.933       .  S
C883        C884   1.409       .  A
C883        C888   1.410       .  A
C884        C885   1.411   1_554  A
C884       Br895   1.928   1_554  S
C885        C886   1.414   1_556  A
C885      Br2367   1.930       .  S
C886        C887   1.416       .  A
C887        C888   1.411       .  A
C887       Br896   1.931       .  S
C888       Br892   1.933       .  S
Br891      C2361   1.930       .  S
C897        C898   1.417       .  A
C897        C902   1.415       .  A
C898        C899   1.413       .  A
C898       Br910   1.926       .  S
C899        C900   1.408       .  A
C899       Br914   1.929       .  S
C900        C903   1.489       .  S
C900        C901   1.408       .  A
C901        C902   1.407       .  A
C901       Br909   1.931       .  S
C902       Br913   1.932       .  S
C903        C904   1.409       .  A
C903        C908   1.410       .  A
C904        C905   1.408       .  A
C904       Br915   1.932       .  S
C905        C906   1.413       .  A
C905       Br911   1.931       .  S
C906        C907   1.410       .  A
C907        C908   1.410       .  A
C907       Br916   1.929       .  S
C908       Br912   1.927       .  S
C917        C918   1.423       .  A
C917        C922   1.415       .  A
C918        C919   1.406       .  A
C918       Br930   1.935       .  S
C919        C920   1.405       .  A
C919       Br934   1.936       .  S
C920        C923   1.496       .  S
C920        C921   1.413       .  A
C921        C922   1.419       .  A
C921       Br929   1.927       .  S
C922       Br933   1.928       .  S
C923        C924   1.410       .  A
C923        C928   1.403       .  A
C924        C925   1.419       .  A
C924       Br935   1.929       .  S
C925        C926   1.422       .  A
C925       Br931   1.926       .  S
C926        C927   1.431       .  A
C927        C928   1.408       .  A
C927       Br936   1.939       .  S
C928       Br932   1.938       .  S
C937        C938   1.424       .  A
C937        C942   1.415       .  A
C938        C939   1.409       .  A
C938       Br950   1.937       .  S
C939        C940   1.408       .  A
C939       Br954   1.936       .  S
C940        C943   1.499   1_545  S
C940        C941   1.412       .  A
C941        C942   1.417       .  A
C941       Br949   1.927   1_545  S
C942       Br953   1.928       .  S
C943        C944   1.413       .  A
C943        C948   1.407       .  A
C944        C945   1.418       .  A
C944       Br955   1.926   1_565  S
C945        C946   1.413       .  A
C945       Br951   1.927       .  S
C946        C947   1.424       .  A
C947        C948   1.407       .  A
C947       Br956   1.937       .  S
C948       Br952   1.936       .  S
C957        C958   1.414       .  A
C957        C962   1.415       .  A
C958        C959   1.410       .  A
C958       Br970   1.931       .  S
C959        C960   1.410       .  A
C959       Br974   1.931       .  S
C960        C963   1.492       .  S
C960        C961   1.409       .  A
C961        C962   1.411       .  A
C961       Br969   1.929       .  S
C962       Br973   1.931       .  S
C963        C964   1.408       .  A
C963        C968   1.407       .  A
C964        C965   1.414       .  A
C964       Br975   1.931       .  S
C965        C966   1.419       .  A
C965       Br971   1.926       .  S
C966        C967   1.419       .  A
C967        C968   1.410       .  A
C967       Br976   1.933       .  S
C968       Br972   1.932       .  S
C977        C978   1.415       .  A
C977        C982   1.421       .  A
C978        C979   1.411       .  A
C978       Br990   1.929       .  S
C979        C980   1.407       .  A
C979       Br994   1.928       .  S
C980       C2459   1.485       .  S
C980        C981   1.406       .  A
C981        C982   1.406       .  A
C981       Br989   1.935   1_554  S
C982       Br993   1.935       .  S
C983       C2456   1.484       .  S
C983        C984   1.407       .  A
C983       C2464   1.410       .  A
C984        C985   1.403       .  A
C984       Br995   1.931       .  S
C985        C986   1.412       .  A
C985       Br991   1.931       .  S
C986        C987   1.411       .  A
C987       C2464   1.411       .  A
C987      Br2472   1.926       .  S
C988       C2459   1.411       .  A
C988       C2463   1.412       .  A
C988       Br992   1.927       .  S
Br996      C2463   1.926       .  S
C997        C998   1.417   1_554  A
C997       C1002   1.419       .  A
C998       C2475   1.415       .  A
C998      Br1010   1.927   1_455  S
C999       C2474   1.415       .  A
C999       C2476   1.409       .  A
C999      Br1014   1.928       .  S
C1000      C2479   1.488       .  S
C1000      C1001   1.403   1_556  A
C1000      C2475   1.409       .  A
C1001      C1002   1.405       .  A
C1001     Br1009   1.935       .  S
C1002     Br1013   1.921       .  S
C1003      C2476   1.488       .  S
C1003      C1004   1.408       .  A
C1003      C1008   1.406       .  A
C1004      C1005   1.413       .  A
C1004     Br1015   1.929       .  S
C1005      C1006   1.417       .  A
C1005     Br1011   1.927       .  S
C1006      C1007   1.424       .  A
C1007      C1008   1.406       .  A
C1007     Br1016   1.936       .  S
C1008     Br2488   1.936       .  S
Br1012     C2484   1.936       .  S
C1017      C1018   1.418       .  A
C1017      C1022   1.423       .  A
C1018      C1019   1.414       .  A
C1018     Br1030   1.927       .  S
C1019      C1020   1.409       .  A
C1019     Br1034   1.930       .  S
C1020      C1023   1.491       .  S
C1020      C1021   1.406       .  A
C1021      C1022   1.407       .  A
C1021     Br1029   1.935       .  S
C1022     Br1033   1.936       .  S
C1023      C1024   1.408       .  A
C1023      C1028   1.408       .  A
C1024      C1025   1.410       .  A
C1024     Br1035   1.932       .  S
C1025      C1026   1.421       .  A
C1025     Br1031   1.934       .  S
C1026      C1027   1.418       .  A
C1027      C1028   1.410       .  A
C1027     Br1036   1.933       .  S
C1028     Br1032   1.933       .  S
C1037      C1038   1.419       .  A
C1037      C2518   1.427       .  A
C1038      C1039   1.419       .  A
C1038     Br1050   1.928       .  S
C1039      C2516   1.411       .  A
C1039     Br1054   1.927       .  S
C1040      C1043   1.492       .  S
C1040      C1041   1.401       .  A
C1040      C2515   1.411   1_554  A
C1041      C1042   1.403       .  A
C1041     Br1049   1.939       .  S
C1042      C2513   1.427   1_554  A
C1042     Br1053   1.932       .  S
C1043      C1044   1.411       .  A
C1043      C1048   1.408       .  A
C1044      C1045   1.413       .  A
C1044     Br1055   1.928       .  S
C1045      C1046   1.410       .  A
C1045     Br1051   1.918       .  S
C1046      C1047   1.416       .  A
C1047      C1048   1.408       .  A
C1047     Br1056   1.933   1_455  S
C1048     Br1052   1.931       .  S
C1057      C1058   1.410       .  A
C1057      C1062   1.410       .  A
C1058      C1059   1.412       .  A
C1058     Br1070   1.928       .  S
C1059      C1060   1.411       .  A
C1059     Br1074   1.927       .  S
C1060      C1063   1.488       .  S
C1060      C1061   1.410       .  A
C1061      C1062   1.404       .  A
C1061     Br1069   1.935       .  S
C1062     Br1073   1.926       .  S
C1063      C1064   1.412       .  A
C1063      C1068   1.410       .  A
C1064      C1065   1.411       .  A
C1064     Br1075   1.928       .  S
C1065      C1066   1.408       .  A
C1065     Br1071   1.929       .  S
C1066      C1067   1.410       .  A
C1067      C1068   1.404       .  A
C1067     Br2552   1.931       .  S
C1068     Br1072   1.931       .  S
Br1076     C2543   1.931       .  S
C1077      C1078   1.418       .  A
C1077      C1082   1.417       .  A
C1078      C1079   1.410       .  A
C1078     Br1090   1.931       .  S
C1079      C1080   1.408       .  A
C1079     Br1094   1.933       .  S
C1080      C1083   1.495       .  S
C1080      C1081   1.410       .  A
C1081      C1082   1.415       .  A
C1081     Br1089   1.928       .  S
C1082     Br1093   1.930       .  S
C1083      C1084   1.407       .  A
C1083      C1088   1.410       .  A
C1084      C1085   1.409       .  A
C1084     Br1095   1.930       .  S
C1085      C1086   1.418       .  A
C1085     Br1091   1.933       .  S
C1086      C1087   1.417       .  A
C1087      C1088   1.415       .  A
C1087     Br1096   1.929       .  S
C1088     Br1092   1.929       .  S
C1097      C1098   1.414       .  A
C1097      C1102   1.426       .  A
C1098      C1099   1.421       .  A
C1098     Br1110   1.920       .  S
C1099      C1100   1.413       .  A
C1099     Br1114   1.927       .  S
C1100      C1103   1.502       .  S
C1100      C1101   1.407       .  A
C1101      C1102   1.408       .  A
C1101     Br1109   1.936       .  S
C1102     Br1113   1.938       .  S
C1103      C1104   1.414       .  A
C1103      C1108   1.405       .  A
C1104      C1105   1.422       .  A
C1104     Br1115   1.928       .  S
C1105      C1106   1.419       .  A
C1105     Br1111   1.927       .  S
C1106      C1107   1.427       .  A
C1107      C1108   1.406       .  A
C1107     Br1116   1.939   1_655  S
C1108     Br1112   1.936       .  S
C1117      C1118   1.417       .  A
C1117      C1122   1.419       .  A
C1118      C1119   1.408       .  A
C1118     Br1130   1.933       .  S
C1119      C1120   1.408       .  A
C1119     Br1134   1.932       .  S
C1120      C1123   1.492       .  S
C1120      C1121   1.409       .  A
C1121      C1122   1.414       .  A
C1121     Br1129   1.930       .  S
C1122     Br1133   1.928       .  S
C1123      C1124   1.408       .  A
C1123      C1128   1.409       .  A
C1124      C1125   1.412       .  A
C1124     Br1135   1.930       .  S
C1125      C1126   1.417       .  A
C1125     Br1131   1.931       .  S
C1126      C1127   1.415       .  A
C1127      C1128   1.409       .  A
C1127     Br1136   1.931       .  S
C1128     Br1132   1.931       .  S
C1137      C1138   1.414       .  A
C1137      C1142   1.421       .  A
C1138      C1139   1.416       .  A
C1138     Br1150   1.924       .  S
C1139      C1140   1.412       .  A
C1139     Br1154   1.928       .  S
C1140      C1143   1.505       .  S
C1140      C1141   1.410       .  A
C1141      C1142   1.416       .  A
C1141     Br1149   1.932       .  S
C1142     Br1153   1.932       .  S
C1143      C1144   1.409       .  A
C1143      C1148   1.416       .  A
C1144      C1145   1.410       .  A
C1144     Br1155   1.931       .  S
C1145      C1146   1.412       .  A
C1145     Br2627   1.923       .  S
C1146      C1147   1.411       .  A
C1147      C1148   1.420       .  A
C1147     Br1156   1.928       .  S
C1148     Br1152   1.927       .  S
Br1151     C2621   1.923       .  S
C1157      C1158   1.414       .  A
C1157      C1162   1.409       .  A
C1158      C1159   1.406       .  A
C1158     Br1170   1.930       .  S
C1159      C1160   1.407       .  A
C1159     Br1174   1.932       .  S
C1160      C1163   1.489   1_655  S
C1160      C1161   1.411       .  A
C1161      C1162   1.413       .  A
C1161     Br1169   1.928       .  S
C1162     Br1173   1.923       .  S
C1163      C1164   1.402       .  A
C1163      C1168   1.410       .  A
C1164      C1165   1.406       .  A
C1164     Br1175   1.935       .  S
C1165      C1166   1.427       .  A
C1165     Br1171   1.935       .  S
C1166      C1167   1.418       .  A
C1167      C1168   1.414       .  A
C1167     Br1176   1.932       .  S
C1168     Br1172   1.930   1_455  S
C1177      C1178   1.415       .  A
C1177      C1182   1.420       .  A
C1178      C1179   1.410       .  A
C1178     Br1190   1.930       .  S
C1179      C1180   1.408       .  A
C1179     Br1194   1.930       .  S
C1180      C1183   1.483       .  S
C1180      C1181   1.404       .  A
C1181      C1182   1.405       .  A
C1181     Br1189   1.933       .  S
C1182     Br1193   1.933       .  S
C1183      C1184   1.405       .  A
C1183      C1188   1.404       .  A
C1184      C1185   1.408       .  A
C1184     Br1195   1.933       .  S
C1185      C1186   1.423       .  A
C1185     Br2667   1.936       .  S
C1186      C1187   1.422       .  A
C1187      C1188   1.408       .  A
C1187     Br1196   1.934       .  S
C1188     Br1192   1.932       .  S
Br1191     C2661   1.936       .  S
C1197      C1198   1.413       .  A
C1197      C1202   1.417       .  A
C1198      C1199   1.416       .  A
C1198     Br1210   1.927       .  S
C1199      C1200   1.412       .  A
C1199     Br1214   1.927       .  S
C1200      C1203   1.495       .  S
C1200      C1201   1.407       .  A
C1201      C1202   1.409       .  A
C1201     Br1209   1.933       .  S
C1202     Br1213   1.929       .  S
C1203      C1204   1.412       .  A
C1203      C1208   1.409       .  A
C1204      C1205   1.414       .  A
C1204     Br1215   1.928       .  S
C1205      C1206   1.410       .  A
C1205     Br1211   1.927       .  S
C1206      C1207   1.416       .  A
C1207      C1208   1.409       .  A
C1207     Br1216   1.933       .  S
C1208     Br1212   1.931       .  S
C1217      C1218   1.423       .  A
C1217      C1222   1.423       .  A
C1218      C1219   1.411       .  A
C1218     Br1230   1.933       .  S
C1219      C1220   1.405       .  A
C1219     Br1234   1.934       .  S
C1220      C1223   1.487       .  S
C1220      C1221   1.406       .  A
C1221      C1222   1.408       .  A
C1221     Br1229   1.934       .  S
C1222     Br1233   1.935       .  S
C1223      C1224   1.404       .  A
C1223      C1228   1.409       .  A
C1224      C1225   1.401       .  A
C1224     Br1235   1.935       .  S
C1225      C1226   1.422       .  A
C1225     Br1231   1.938       .  S
C1226      C1227   1.421       .  A
C1227      C1228   1.414       .  A
C1227     Br1236   1.933       .  S
C1228     Br1232   1.929       .  S
C1237      C1238   1.414       .  A
C1237      C1242   1.418       .  A
C1238      C1239   1.414       .  A
C1238     Br1250   1.929       .  S
C1239      C1240   1.411       .  A
C1239     Br1254   1.927       .  S
C1240      C1243   1.496       .  S
C1240      C1241   1.409       .  A
C1241      C1242   1.409       .  A
C1241     Br1249   1.932       .  S
C1242     Br1253   1.934       .  S
C1243      C1244   1.410       .  A
C1243      C1248   1.406       .  A
C1244      C1245   1.418       .  A
C1244     Br1255   1.928       .  S
C1245      C1246   1.420       .  A
C1245     Br1251   1.928       .  S
C1246      C1247   1.423       .  A
C1247      C1248   1.408       .  A
C1247     Br1256   1.928       .  S
C1248     Br1252   1.937       .  S
C1257      C1258   1.410       .  A
C1257      C2738   1.412   1_554  A
C1258      C2735   1.410   1_554  A
C1258     Br1270   1.928       .  S
C1259      C1260   1.412       .  A
C1259      C2734   1.410       .  A
C1259     Br2750   1.930       .  S
C1260      C1263   1.490       .  S
C1260      C1261   1.408       .  A
C1261      C1262   1.409       .  A
C1261     Br1269   1.929       .  S
C1262      C2733   1.412       .  A
C1262     Br1273   1.926       .  S
C1263      C1264   1.411       .  A
C1263      C1268   1.404       .  A
C1264      C1265   1.414       .  A
C1264     Br1275   1.929       .  S
C1265      C1266   1.417       .  A
C1265     Br1271   1.932       .  S
C1266      C1267   1.417       .  A
C1267      C1268   1.405       .  A
C1267     Br1276   1.924       .  S
C1268     Br1272   1.933       .  S
Br1274     C2735   1.930       .  S
C1277      C1278   1.417       .  A
C1277      C1282   1.421       .  A
C1278      C1279   1.400       .  A
C1278     Br1290   1.933       .  S
C1279      C1280   1.405       .  A
C1279     Br1294   1.936       .  S
C1280      C1283   1.478       .  S
C1280      C1281   1.406       .  A
C1281      C1282   1.410       .  A
C1281     Br1289   1.930       .  S
C1282     Br1293   1.934       .  S
C1283      C1284   1.406       .  A
C1283      C1288   1.404       .  A
C1284      C1285   1.409       .  A
C1284     Br1295   1.930       .  S
C1285      C1286   1.414       .  A
C1285     Br1291   1.923       .  S
C1286      C1287   1.416       .  A
C1287      C1288   1.402       .  A
C1287     Br1296   1.929       .  S
C1288     Br1292   1.934       .  S
C1297      C1298   1.420       .  A
C1297      C1302   1.429       .  A
C1298      C1299   1.411       .  A
C1298     Br1310   1.934       .  S
C1299      C1300   1.408       .  A
C1299     Br2790   1.932       .  S
C1300      C2779   1.483       .  S
C1300      C1301   1.402       .  A
C1301      C1302   1.404       .  A
C1301     Br1309   1.937       .  S
C1302     Br1313   1.942       .  S
C1303      C2776   1.483       .  S
C1303      C1308   1.401   1_556  A
C1303      C2780   1.410       .  A
C1304      C2779   1.410       .  A
C1304      C2781   1.414       .  A
C1304     Br1315   1.929       .  S
C1305      C1306   1.416       .  A
C1305      C2780   1.414   1_554  A
C1305     Br1311   1.928   1_554  S
C1306      C1307   1.422       .  A
C1307      C1308   1.401       .  A
C1307     Br1316   1.923       .  S
C1308     Br1312   1.939       .  S
Br1314     C2775   1.932       .  S
C1317      C1318   1.419       .  A
C1317      C1322   1.437       .  A
C1318      C1319   1.410       .  A
C1318     Br1330   1.932       .  S
C1319      C1320   1.404       .  A
C1319     Br1334   1.933       .  S
C1320      C2799   1.481       .  S
C1320      C1321   1.400       .  A
C1321      C1322   1.408       .  A
C1321     Br1329   1.938       .  S
C1322     Br1333   1.938       .  S
C1323      C2796   1.482       .  S
C1323      C1324   1.408       .  A
C1323      C2804   1.408       .  A
C1324      C1325   1.404       .  A
C1324     Br1335   1.932       .  S
C1325      C1326   1.412       .  A
C1325     Br1331   1.933       .  S
C1326      C1327   1.414       .  A
C1327      C2804   1.408       .  A
C1327     Br2812   1.932   1_655  S
C1328      C2799   1.408       .  A
C1328      C2803   1.408   1_554  A
C1328     Br1332   1.929       .  S
Br1336     C2803   1.932   1_454  S
C1337      C1338   1.409       .  A
C1337      C1342   1.408       .  A
C1338      C1339   1.413       .  A
C1338     Br1350   1.930       .  S
C1339      C1340   1.418       .  A
C1339     Br1354   1.932       .  S
C1340      C1343   1.496       .  S
C1340      C1341   1.412       .  A
C1341      C1342   1.401       .  A
C1341     Br1349   1.932       .  S
C1342     Br1353   1.925       .  S
C1343      C1344   1.410       .  A
C1343      C1348   1.414       .  A
C1344      C1345   1.406       .  A
C1344     Br1355   1.934       .  S
C1345      C1346   1.419       .  A
C1345     Br1351   1.930       .  S
C1346      C1347   1.412       .  A
C1347      C1348   1.409       .  A
C1347     Br1356   1.927       .  S
C1348     Br1352   1.932       .  S
C1357      C1358   1.414       .  A
C1357      C1362   1.418       .  A
C1358      C1359   1.421       .  A
C1358     Br1370   1.927       .  S
C1359      C1360   1.416       .  A
C1359     Br1374   1.928       .  S
C1360      C1363   1.508   1_455  S
C1360      C1361   1.411       .  A
C1361      C1362   1.410       .  A
C1361     Br1369   1.934   1_455  S
C1362     Br1373   1.930       .  S
C1363      C1364   1.414       .  A
C1363      C1368   1.414       .  A
C1364      C1365   1.413       .  A
C1364     Br1375   1.930       .  S
C1365      C1366   1.412       .  A
C1365     Br1371   1.928       .  S
C1366      C1367   1.416       .  A
C1367      C1368   1.418       .  A
C1367     Br1376   1.928   1_554  S
C1368     Br1372   1.929   1_655  S
C1377      C1378   1.412       .  A
C1377      C1382   1.416       .  A
C1378      C1379   1.415       .  A
C1378     Br1390   1.929       .  S
C1379      C1380   1.413       .  A
C1379     Br1394   1.927       .  S
C1380      C1383   1.494       .  S
C1380      C1381   1.409       .  A
C1381      C1382   1.405       .  A
C1381     Br1389   1.935       .  S
C1382     Br1393   1.932       .  S
C1383      C1384   1.414       .  A
C1383      C1388   1.410       .  A
C1384      C1385   1.410       .  A
C1384     Br1395   1.930       .  S
C1385      C1386   1.409       .  A
C1385     Br1391   1.925       .  S
C1386      C1387   1.412       .  A
C1387      C1388   1.410       .  A
C1387     Br1396   1.928       .  S
C1388     Br1392   1.929       .  S
C1397      C1398   1.428       .  A
C1397      C1402   1.423       .  A
C1398      C1399   1.408       .  A
C1398     Br1410   1.938       .  S
C1399      C1400   1.404       .  A
C1399     Br1414   1.937       .  S
C1400      C1403   1.488       .  S
C1400      C1401   1.406       .  A
C1401      C1402   1.414       .  A
C1401     Br1409   1.930       .  S
C1402     Br1413   1.931       .  S
C1403      C1404   1.408       .  A
C1403      C1408   1.412       .  A
C1404      C1405   1.404       .  A
C1404     Br1415   1.932       .  S
C1405      C1406   1.410       .  A
C1405     Br1411   1.929       .  S
C1406      C1407   1.409       .  A
C1407      C1408   1.412       .  A
C1407     Br1416   1.929       .  S
C1408     Br1412   1.926       .  S
C1417      C1418   1.416       .  A
C1417      C1422   1.422       .  A
C1418      C1419   1.417       .  A
C1418     Br1430   1.926       .  S
C1419      C1420   1.412       .  A
C1419     Br1434   1.930       .  S
C1420      C1423   1.500       .  S
C1420      C1421   1.406       .  A
C1421      C1422   1.412       .  A
C1421     Br1429   1.933       .  S
C1422     Br1433   1.926       .  S
C1423      C1424   1.413       .  A
C1423      C1428   1.407       .  A
C1424      C1425   1.416       .  A
C1424     Br1435   1.928       .  S
C1425      C1426   1.413       .  A
C1425     Br1431   1.926       .  S
C1426      C1427   1.421       .  A
C1427      C1428   1.411       .  A
C1427     Br2912   1.934       .  S
C1428     Br1432   1.932       .  S
Br1436     C2903   1.934       .  S
C1437      C1438   1.414       .  A
C1437      C1442   1.415       .  A
C1438      C1439   1.403       .  A
C1438     Br1450   1.933       .  S
C1439      C1440   1.407       .  A
C1439     Br1454   1.932       .  S
C1440      C1443   1.479       .  S
C1440      C1441   1.407       .  A
C1441      C1442   1.407       .  A
C1441     Br1449   1.931       .  S
C1442     Br1453   1.927       .  S
C1443      C1444   1.407       .  A
C1443      C1448   1.408       .  A
C1444      C1445   1.405       .  A
C1444     Br1455   1.934       .  S
C1445      C1446   1.415       .  A
C1445     Br1451   1.931       .  S
C1446      C1447   1.411       .  A
C1447      C1448   1.406       .  A
C1447     Br2932   1.931   1_554  S
C1448     Br1452   1.929       .  S
Br1456     C2923   1.931       .  S
C1457      C1458   1.414       .  A
C1457      C1462   1.411       .  A
C1458      C1459   1.409       .  A
C1458     Br1470   1.923       .  S
C1459      C1460   1.407       .  A
C1459     Br1474   1.932       .  S
C1460      C1463   1.498       .  S
C1460      C1461   1.414       .  A
C1461      C1462   1.417       .  A
C1461     Br1469   1.927       .  S
C1462     Br1473   1.929       .  S
C1463      C1464   1.414       .  A
C1463      C1468   1.409       .  A
C1464      C1465   1.415       .  A
C1464     Br1475   1.927       .  S
C1465      C1466   1.408       .  A
C1465     Br1471   1.928       .  S
C1466      C1467   1.413       .  A
C1467      C1468   1.410       .  A
C1467     Br1476   1.929       .  S
C1468     Br1472   1.930       .  S
O1477      C1492   1.253       .  A
O1477     Al1485   1.870       .  S
C1478      O1488   1.272       .  A
C1478      O1479   1.289       .  A
C1478      C2873   1.504       .  S
O1479     Al1481   1.987       .  S
O1480      C1482   1.251       .  A
O1480     Al1481   1.862       .  S
Al1481     O1489   1.918       .  S
Al1481     O1491   1.964       .  S
Al1481     O1490   1.775       .  S
C1482      O1495   1.268       .  A
C1482      C2853   1.483       .  S
O1483      C1493   1.254       .  A
O1483     Al1485   1.926       .  S
O1484      C1497   1.277       .  A
O1484     Al1494   1.885       .  S
Al1485     O1498   1.954       .  S
Al1485     O1495   1.940       .  S
Al1485     O1490   1.775       .  S
O1486      C1493   1.249       .  A
O1486     Al1494   1.914       .  S
O1487      C1496   1.252       .  A
O1487     Al1494   1.924       .  S
O1488     Al1494   1.882       .  S
O1489      C1496   1.253       .  A
O1490     Al1494   1.774       .  S
O1491      C1492   1.272       .  A
C1492      C2833   1.498       .  S
C1493      C2933   1.489       .  S
C1496      C2893   1.504       .  S
C1497      O1498   1.283       .  A
C1497      C2913   1.480       .  S
O1499      C1514   1.268       .  A
O1499     Al1507   1.919   1_655  S
C1500      O1510   1.273       .  A
C1500      O1501   1.263       .  A
C1500      C2762   1.482       .  S
O1501     Al1503   1.872       .  S
O1502      C1504   1.245       .  A
O1502     Al1503   1.864       .  S
Al1503     O1511   1.879   1_455  S
Al1503     O1513   1.892   1_455  S
Al1503     O1512   1.794       .  S
C1504      O1517   1.256       .  A
C1504      C2773   1.494       .  S
O1505      C1515   1.259       .  A
O1505     Al1507   1.909       .  S
O1506      C1519   1.264       .  A
O1506     Al1516   1.929       .  S
Al1507     O1520   1.877   1_455  S
Al1507     O1517   1.914       .  S
Al1507     O1512   1.800       .  S
O1508      C1515   1.258       .  A
O1508     Al1516   1.897   1_455  S
O1509      C1518   1.257       .  A
O1509     Al1516   1.926       .  S
O1510     Al1516   1.943   1_455  S
O1511      C1518   1.246       .  A
O1512     Al1516   1.794   1_455  S
O1513      C1514   1.266       .  A
C1514      C2802   1.476       .  S
C1515      C2862   1.482       .  S
C1518      C2822   1.489       .  S
C1519      O1520   1.256       .  A
C1519      C2742   1.491       .  S
O1521      C1536   1.274       .  A
O1521     Al1529   1.958       .  S
C1522      O1532   1.271       .  A
C1522      C2662   1.497       .  S
O1523     Al1525   1.887       .  S
O1524      C1526   1.255       .  A
O1524     Al1525   1.905       .  S
Al1525     O1533   1.907       .  S
Al1525     O1535   1.872       .  S
Al1525     O1534   1.776       .  S
C1526      O1539   1.261       .  A
C1526      C2673   1.493       .  S
O1527      C1537   1.268       .  A
O1527     Al1529   1.940       .  S
O1528      C1541   1.265       .  A
O1528     Al1538   1.939       .  S
Al1529     O1542   1.903       .  S
Al1529     O1539   1.929       .  S
Al1529     O1534   1.787       .  S
O1530      C1537   1.259       .  A
O1530     Al1538   1.880       .  S
O1531      C1540   1.261       .  A
O1534     Al1538   1.785       .  S
O1535      C1536   1.262       .  A
C1536      C2702   1.496       .  S
C1537      C2733   1.486       .  S
C1540      C2713   1.493       .  S
C1541      O1542   1.261       .  A
C1541      C2842   1.499       .  S
O1543      C1558   1.253       .  A
O1543     Al1551   1.854       .  S
C1544      O1554   1.273       .  A
C1544      O1545   1.286       .  A
C1544      C2722   1.507       .  S
O1545     Al1547   1.981       .  S
O1546      C1548   1.250       .  A
O1546     Al1547   1.863       .  S
Al1547     O1555   1.934       .  S
Al1547     O1557   1.978       .  S
Al1547     O1556   1.781       .  S
C1548      O1561   1.264       .  A
C1548      C2633   1.482       .  S
O1549      C1559   1.251       .  A
O1549     Al1551   1.907       .  S
O1550      C1563   1.272       .  A
O1550     Al1560   1.890       .  S
Al1551     O1564   1.973       .  S
Al1551     O1561   1.938       .  S
Al1551     O1556   1.775       .  S
O1552      C1559   1.253       .  A
O1552     Al1560   1.925       .  S
O1553      C1562   1.250       .  A
O1553     Al1560   1.902       .  S
O1554     Al1560   1.888       .  S
O1555      C1562   1.258       .  A
O1556     Al1560   1.783       .  S
O1557      C1558   1.277       .  A
C1558      C2573   1.507       .  S
C1559      C2693   1.498       .  S
C1562      C2613   1.504       .  S
C1563      O1564   1.282       .  A
C1563      C2593   1.495       .  S
O1565      C1580   1.251       .  A
O1565     Al1573   1.859       .  S
C1566      O1576   1.269       .  A
C1566      O1567   1.291       .  A
C1566      C2942   1.484       .  S
O1567     Al1569   1.995       .  S
O1568      C1570   1.251       .  A
O1568     Al1569   1.871       .  S
Al1569     O1577   1.904       .  S
Al1569     O1579   1.959       .  S
Al1569     O1578   1.769       .  S
C1570      O1583   1.264       .  A
C1570      C2642   1.498       .  S
O1571      C1581   1.246       .  A
O1572     Al1582   1.872   1_554  S
Al1573     O1583   1.930       .  S
Al1573     O1578   1.770       .  S
O1574     Al1582   1.915   1_554  S
O1575      C1584   1.252       .  A
O1575     Al1582   1.925       .  S
O1576     Al1582   1.867       .  S
O1577      C1584   1.249       .  A
O1578     Al1582   1.788       .  S
O1579      C1580   1.271       .  A
C1580      C2513   1.505       .  S
C1581      C2922   1.476       .  S
C1584      C2553   1.495       .  S
C1585      O1586   1.285       .  A
C1585      C2542   1.473       .  S
O1587      C1602   1.252       .  A
O1587     Al1595   1.860   1_655  S
C1588      O1598   1.270       .  A
C1588      O1589   1.279       .  A
C1588      C2473   1.496       .  S
O1589     Al1591   1.961   1_455  S
O1590      C1592   1.251       .  A
O1590     Al1591   1.857   1_455  S
Al1591     O1599   1.916       .  S
Al1591     O1601   1.963       .  S
Al1591     O1600   1.783       .  S
C1592      O1605   1.269       .  A
C1592      C2522   1.487       .  S
O1593      C1603   1.255       .  A
O1593     Al1595   1.909       .  S
O1594      C1607   1.268       .  A
O1594     Al1604   1.886       .  S
Al1595     O1608   1.978   1_455  S
Al1595     O1605   1.958       .  S
Al1595     O1600   1.771   1_455  S
O1596      C1603   1.254       .  A
O1596     Al1604   1.917   1_455  S
O1597      C1606   1.252       .  A
O1597     Al1604   1.892       .  S
O1598     Al1604   1.891   1_455  S
O1599      C1606   1.258       .  A
O1600     Al1604   1.783       .  S
O1601      C1602   1.270       .  A
C1602      C2582   1.510       .  S
C1603      C2502   1.493       .  S
C1606      C2453   1.489       .  S
C1607      O1608   1.281       .  A
C1607      C2442   1.498       .  S
O1609      C1624   1.276       .  A
O1609     Al1617   1.972       .  S
C1610      O1620   1.276       .  A
C1610      O1611   1.261       .  A
C1610      C2353   1.491       .  S
O1611     Al1613   1.877       .  S
O1612      C1614   1.263       .  A
O1612     Al1613   1.928       .  S
Al1613     O1621   1.934       .  S
Al1613     O1623   1.884       .  S
Al1613     O1622   1.774       .  S
C1614      O1627   1.259       .  A
C1614      C2382   1.479       .  S
O1615      C1625   1.274       .  A
O1615     Al1617   1.980       .  S
O1616      C1629   1.273       .  A
O1616     Al1626   1.973       .  S
Al1617     O1630   1.868       .  S
Al1617     O1627   1.900       .  S
Al1617     O1622   1.773       .  S
O1618      C1625   1.250       .  A
O1618     Al1626   1.856       .  S
O1619      C1628   1.257       .  A
O1619     Al1626   1.900       .  S
O1620     Al1626   1.968       .  S
O1621      C1628   1.263       .  A
O1622     Al1626   1.773       .  S
O1623      C1624   1.264       .  A
C1624      C2562   1.498       .  S
C1625      C2422   1.499       .  S
C1628      C2533   1.478       .  S
C1629      O1630   1.253       .  A
C1629      C2393   1.498       .  S
O1631      C1646   1.281       .  A
O1631     Al1639   1.972   1_545  S
C1632      O1642   1.282       .  A
C1632      O1633   1.263       .  A
C1632      C2493   1.498       .  S
O1633     Al1635   1.868   1_565  S
O1634      C1636   1.250       .  A
O1634     Al1635   1.887   1_565  S
Al1635     O1643   1.916       .  S
Al1635     O1645   1.872       .  S
Al1635     O1644   1.780       .  S
C1636      O1649   1.259       .  A
C1636      C2482   1.497       .  S
O1637      C1647   1.271       .  A
O1637     Al1639   1.961       .  S
O1638      C1651   1.269       .  A
O1638     Al1648   1.955       .  S
Al1639     O1652   1.874   1_565  S
Al1639     O1649   1.924       .  S
Al1639     O1644   1.785   1_565  S
O1640      C1647   1.252       .  A
O1640     Al1648   1.866   1_565  S
O1641      C1650   1.251       .  A
O1641     Al1648   1.901       .  S
O1642     Al1648   1.986   1_565  S
O1643      C1650   1.254       .  A
O1644     Al1648   1.773       .  S
O1645      C1646   1.266       .  A
C1646      C2313   1.487       .  S
C1647      C2402   1.513       .  S
C1650      C2342   1.486       .  S
C1651      O1652   1.253       .  A
C1651      C2293   1.510       .  S
O1653      C1668   1.279       .  A
C1654      O1664   1.277       .  A
C1654      O1655   1.268       .  A
C1654      C2213   1.481       .  S
O1655     Al1657   1.880       .  S
O1656     Al1657   1.919       .  S
Al1657     O1665   1.921       .  S
Al1657     O1667   1.879       .  S
Al1657     O1666   1.786       .  S
C1658      O1671   1.256       .  A
C1658      C2233   1.488   1_554  S
O1659      C1669   1.270       .  A
O1659     Al1661   1.955       .  S
O1660      C1673   1.263       .  A
O1660     Al1670   1.933       .  S
Al1661     O1674   1.869       .  S
Al1661     O1666   1.784       .  S
O1662      C1669   1.252       .  A
O1662     Al1670   1.862       .  S
O1663      C1672   1.251       .  A
O1663     Al1670   1.898       .  S
O1664     Al1670   1.959       .  S
O1665      C1672   1.255       .  A
O1666     Al1670   1.779       .  S
C1668      C2262   1.494       .  S
C1669      C2413   1.500       .  S
C1672      C2282   1.484       .  S
C1673      O1674   1.252       .  A
C1673      C2302   1.479       .  S
O1675      C1690   1.252       .  A
O1675     Al1683   1.865   1_565  S
C1676      O1686   1.266       .  A
C1676      O1677   1.292       .  A
C1676      C2813   1.475       .  S
O1677     Al1679   1.996   1_545  S
O1678      C1680   1.251       .  A
O1678     Al1679   1.875   1_545  S
Al1679     O1687   1.905       .  S
Al1679     O1689   1.963       .  S
Al1679     O1688   1.767       .  S
C1680      O1693   1.270       .  A
C1680      C2173   1.498       .  S
O1681      C1691   1.264       .  A
O1681     Al1683   1.917       .  S
O1682      C1695   1.270       .  A
O1682     Al1692   1.870       .  S
Al1683     O1696   1.975   1_545  S
Al1683     O1693   1.949       .  S
Al1683     O1688   1.771   1_545  S
O1684      C1691   1.237       .  A
O1684     Al1692   1.891   1_545  S
O1685      C1694   1.247       .  A
O1685     Al1692   1.905       .  S
O1686     Al1692   1.851   1_545  S
O1687      C1694   1.247       .  A
O1688     Al1692   1.787       .  S
O1689      C1690   1.272       .  A
C1690      C2202   1.514       .  S
C1691      C2793   1.504       .  S
C1694      C2162   1.492       .  S
C1695      O1696   1.285       .  A
C1695      C2142   1.479       .  S
O1697      C1712   1.251   1_554  A
C1698      O1708   1.270       .  A
C1698      O1699   1.280       .  A
C1698      C2373   1.492       .  S
O1699     Al1701   1.969       .  S
O1700      C1702   1.254       .  A
O1700     Al1701   1.866       .  S
Al1701     O1709   1.918       .  S
Al1701     O1711   1.951       .  S
Al1701     O1710   1.785       .  S
C1702      O1715   1.266       .  A
C1702      C2073   1.478       .  S
O1703      C1713   1.252       .  A
O1703     Al1705   1.906       .  S
O1704     Al1714   1.880       .  S
Al1705     O1718   1.958       .  S
O1706     Al1714   1.916       .  S
O1707      C1716   1.255       .  A
O1707     Al1714   1.915       .  S
O1708     Al1714   1.887       .  S
O1709      C1716   1.257       .  A
O1710     Al1714   1.783       .  S
O1711      C1712   1.267       .  A
C1712      C2193   1.499       .  S
C1713      C2362   1.490       .  S
C1716      C2122   1.495       .  S
C1717      O1718   1.277       .  A
C1717      C2102   1.480       .  S
O1719      C1734   1.253       .  A
O1719     Al1727   1.884       .  S
C1720      O1730   1.268       .  A
C1720      O1721   1.274       .  A
C1720      C2242   1.500       .  S
O1721     Al1723   1.961       .  S
O1722      C1724   1.260       .  A
O1722     Al1723   1.885       .  S
Al1723     O1731   1.924       .  S
Al1723     O1733   1.943       .  S
Al1723     O1732   1.786       .  S
C1724      O1737   1.267       .  A
C1724      C2082   1.485       .  S
O1725      C1735   1.253       .  A
O1725     Al1727   1.907       .  S
O1726      C1739   1.264       .  A
O1726     Al1736   1.884       .  S
Al1727     O1740   1.959       .  S
Al1727     O1737   1.937       .  S
Al1727     O1732   1.793       .  S
O1728      C1735   1.251       .  A
O1728     Al1736   1.899       .  S
O1729      C1738   1.252       .  A
O1729     Al1736   1.893       .  S
O1730     Al1736   1.897       .  S
O1731      C1738   1.261       .  A
O1732     Al1736   1.788       .  S
O1733      C1734   1.265       .  A
C1734      C2182   1.503       .  S
C1735      C2222   1.486       .  S
C1738      C2653   1.486       .  S
C1739      O1740   1.276       .  A
C1739      C2682   1.487       .  S
O1741      C1756   1.249       .  A
O1741     Al1749   1.851       .  S
C1742      O1752   1.264       .  A
C1742      O1743   1.275       .  A
C1742      C2273   1.490       .  S
O1743     Al1745   1.962       .  S
O1744      C1746   1.256       .  A
O1744     Al1745   1.880       .  S
Al1745     O1753   1.924       .  S
Al1745     O1755   1.960       .  S
Al1745     O1754   1.787       .  S
C1746      O1759   1.266       .  A
C1746      C2042   1.484       .  S
O1747      C1757   1.253       .  A
O1747     Al1749   1.897       .  S
O1748      C1761   1.264       .  A
O1748     Al1758   1.882       .  S
Al1749     O1762   1.960       .  S
Al1749     O1759   1.944       .  S
Al1749     O1754   1.783       .  S
O1750      C1757   1.259       .  A
O1750     Al1758   1.928       .  S
O1751      C1760   1.259       .  A
O1751     Al1758   1.925       .  S
O1752     Al1758   1.879       .  S
O1753      C1760   1.262       .  A
O1754     Al1758   1.781       .  S
O1755      C1756   1.269       .  A
C1756      C2053   1.498       .  S
C1757      C2253   1.484       .  S
C1760      C2013   1.500       .  S
C1761      O1762   1.275       .  A
C1761      C1993   1.489       .  S
O1763      C1778   1.255       .  A
O1763     Al1771   1.865       .  S
C1764      O1774   1.260       .  A
C1764      O1765   1.279       .  A
C1764      C2782   1.495       .  S
O1765     Al1767   1.967       .  S
O1766      C1768   1.253       .  A
O1766     Al1767   1.873       .  S
Al1767     O1775   1.907       .  S
Al1767     O1777   1.957       .  S
Al1767     O1776   1.789       .  S
C1768      O1781   1.263       .  A
C1768      C1973   1.497       .  S
O1769      C1779   1.252       .  A
O1769     Al1771   1.887       .  S
O1770      C1783   1.259       .  A
O1770     Al1780   1.866       .  S
Al1771     O1784   1.957       .  S
Al1771     O1781   1.939       .  S
Al1771     O1776   1.797       .  S
O1772      C1779   1.258       .  A
O1772     Al1780   1.910       .  S
O1773      C1782   1.251       .  A
O1773     Al1780   1.897       .  S
O1774     Al1780   1.859       .  S
O1775      C1782   1.254       .  A
O1776     Al1780   1.786       .  S
O1777      C1778   1.271       .  A
C1778      C2033   1.488       .  S
C1779      C2753   1.486       .  S
C1782      C2322   1.491       .  S
C1783      O1784   1.272       .  A
C1783      C2333   1.493       .  S
O1785      C1800   1.247       .  A
O1785     Al1793   1.839       .  S
C1786      O1787   1.283       .  A
C1786      C2902   1.498       .  S
O1788      C1790   1.253       .  A
O1788     Al1789   1.871       .  S
Al1789     O1799   2.001       .  S
Al1789     O1798   1.778       .  S
C1790      O1803   1.268       .  A
C1790      C1982   1.483       .  S
O1791      C1801   1.255       .  A
O1791     Al1793   1.888       .  S
O1792      C1805   1.262       .  A
O1792     Al1802   1.887       .  S
Al1793     O1806   1.963       .  S
Al1793     O1803   1.961       .  S
Al1793     O1798   1.767       .  S
O1794      C1801   1.264       .  A
O1794     Al1802   1.942       .  S
O1795     Al1802   1.932       .  S
O1796     Al1802   1.869       .  S
O1797      C1804   1.259       .  A
O1798     Al1802   1.779       .  S
O1799      C1800   1.278       .  A
C1800      C2062   1.499       .  S
C1801      C2882   1.476       .  S
C1804      C1962   1.483       .  S
C1805      O1806   1.274       .  A
C1805      C1942   1.486       .  S
O1807      C1822   1.278       .  A
O1807     Al1815   1.955       .  S
C1808      O1818   1.283       .  A
C1808      O1809   1.265       .  A
C1808      C2113   1.515       .  S
O1809     Al1811   1.880       .  S
O1810      C1812   1.250       .  A
O1810     Al1811   1.898       .  S
Al1811     O1819   1.909       .  S
Al1811     O1821   1.878       .  S
Al1811     O1820   1.786       .  S
C1812      O1825   1.253       .  A
C1812      C2093   1.498       .  S
O1813      C1823   1.265       .  A
O1813     Al1815   1.933       .  S
O1814      C1827   1.272       .  A
O1814     Al1824   1.967       .  S
Al1815     O1828   1.876       .  S
Al1815     O1825   1.906       .  S
Al1815     O1820   1.790       .  S
O1816      C1823   1.256       .  A
O1816     Al1824   1.887       .  S
O1817      C1826   1.254       .  A
O1817     Al1824   1.913       .  S
O1818     Al1824   1.984       .  S
O1819      C1826   1.251       .  A
O1820     Al1824   1.781       .  S
O1821      C1822   1.267       .  A
C1822      C1953   1.477       .  S
C1823      C1902   1.487       .  S
C1826      C1933   1.487       .  S
C1827      O1828   1.253       .  A
C1827      C1913   1.519       .  S
O1829      C1844   1.280       .  A
O1829     Al1837   1.978       .  S
C1830      O1840   1.283       .  A
C1830      C2622   1.493       .  S
O1831     Al1833   1.877       .  S
O1832      C1834   1.258       .  A
O1832     Al1833   1.924       .  S
Al1833     O1841   1.915       .  S
Al1833     O1843   1.883       .  S
Al1833     O1842   1.788       .  S
C1834      O1847   1.256       .  A
C1834      C2602   1.490       .  S
O1835      C1845   1.267       .  A
O1835     Al1837   1.948       .  S
O1836      C1849   1.274       .  A
O1836     Al1846   1.970       .  S
Al1837     O1850   1.868       .  S
Al1837     O1847   1.909       .  S
Al1837     O1842   1.783       .  S
O1838      C1845   1.252       .  A
O1838     Al1846   1.865       .  S
O1839      C1848   1.253       .  A
O1842     Al1846   1.778       .  S
O1843      C1844   1.266       .  A
C1844      C2022   1.499       .  S
C1845      C1873   1.490       .  S
C1848      C2002   1.484   1_554  S
C1849      O1850   1.253       .  A
C1849      C1922   1.494       .  S
O1851      C1866   1.280       .  A
O1851     Al1859   1.963       .  S
C1852      O1862   1.283       .  A
C1852      O1853   1.267       .  A
C1852      C2153   1.501       .  S
O1853     Al1855   1.867       .  S
O1854      C1856   1.249       .  A
O1854     Al1855   1.897       .  S
Al1855     O1863   1.903       .  S
Al1855     O1865   1.873       .  S
Al1855     O1864   1.780       .  S
C1856      O1869   1.253       .  A
C1856      C2133   1.491       .  S
O1857      C1867   1.264       .  A
O1857     Al1859   1.933       .  S
O1858      C1871   1.268       .  A
O1858     Al1868   1.946       .  S
Al1859     O1872   1.867       .  S
Al1859     O1869   1.907       .  S
Al1859     O1864   1.785       .  S
O1860      C1867   1.256       .  A
O1860     Al1868   1.890       .  S
O1861      C1870   1.252       .  A
O1861     Al1868   1.911       .  S
O1862     Al1868   1.976       .  S
O1863      C1870   1.249       .  A
O1864     Al1868   1.778       .  S
O1865      C1866   1.269       .  A
C1866      C2462   1.481       .  S
C1867      C1893   1.488       .  S
C1870      C2433   1.486       .  S
C1871      O1872   1.251       .  A
C1871      C1882   1.509       .  S
C1873      C1874   1.419       .  A
C1874     Br1886   1.934       .  S
C1875      C1876   1.407       .  A
C1875     Br1890   1.935       .  S
C1876      C1879   1.494       .  S
C1876      C1877   1.413       .  A
C1877      C1878   1.415   1_556  A
C1877     Br1885   1.928       .  S
C1879      C1880   1.411       .  A
C1879      C1884   1.402       .  A
C1880      C1881   1.416       .  A
C1880     Br1891   1.930       .  S
C1881      C1882   1.420       .  A
C1881     Br1887   1.931       .  S
C1882      C1883   1.432       .  A
C1883      C1884   1.408       .  A
C1883     Br1892   1.934       .  S
C1893      C1894   1.411       .  A
C1893      C1898   1.410       .  A
C1894      C1895   1.414       .  A
C1894     Br1906   1.924       .  S
C1895      C1896   1.412       .  A
C1895     Br1910   1.929       .  S
C1896      C1899   1.502       .  S
C1896      C1897   1.414       .  A
C1897      C1898   1.414       .  A
C1897     Br1905   1.928       .  S
C1898     Br1909   1.930       .  S
C1899      C1900   1.413       .  A
C1899      C1904   1.414       .  A
C1900      C1901   1.414       .  A
C1900     Br1911   1.928       .  S
C1901      C1902   1.411       .  A
C1901     Br1907   1.927       .  S
C1902      C1903   1.409       .  A
C1903      C1904   1.414       .  A
C1903     Br1912   1.929       .  S
C1904     Br1908   1.928       .  S
C1913      C1914   1.431       .  A
C1913      C1918   1.421       .  A
C1914      C1915   1.414       .  A
C1914     Br1926   1.933       .  S
C1915      C1916   1.404       .  A
C1915     Br1930   1.936       .  S
C1916      C1919   1.507       .  S
C1916      C1917   1.413       .  A
C1917      C1918   1.422       .  A
C1917     Br1925   1.928       .  S
C1918     Br1929   1.929       .  S
C1919      C1920   1.416       .  A
C1919      C1924   1.410       .  A
C1920      C1921   1.421       .  A
C1920     Br1931   1.925       .  S
C1921      C1922   1.412       .  A
C1921     Br1927   1.929       .  S
C1922      C1923   1.415       .  A
C1923      C1924   1.411       .  A
C1923     Br1932   1.929       .  S
C1924     Br1928   1.932       .  S
C1933      C1934   1.414       .  A
C1933      C1938   1.412       .  A
C1934      C1935   1.412       .  A
C1934     Br1946   1.929       .  S
C1935      C1936   1.410       .  A
C1935     Br1950   1.930       .  S
C1936      C1939   1.494       .  S
C1936      C1937   1.412       .  A
C1937      C1938   1.410       .  A
C1937     Br1945   1.932       .  S
C1938     Br1949   1.930       .  S
C1939      C1940   1.412       .  A
C1939      C1944   1.410       .  A
C1940      C1941   1.411       .  A
C1940     Br1951   1.929       .  S
C1941      C1942   1.411       .  A
C1941     Br1947   1.930       .  S
C1942      C1943   1.413       .  A
C1943      C1944   1.410       .  A
C1943     Br1952   1.922       .  S
C1944     Br1948   1.932       .  S
C1953      C1954   1.412       .  A
C1953      C1958   1.407       .  A
C1954      C1955   1.406       .  A
C1954     Br1966   1.933       .  S
C1955      C1956   1.409       .  A
C1955     Br1970   1.930       .  S
C1956      C1959   1.487       .  S
C1956      C1957   1.410       .  A
C1957      C1958   1.409       .  A
C1957     Br1965   1.928       .  S
C1958     Br1969   1.924       .  S
C1959      C1960   1.410       .  A
C1959      C1964   1.408       .  A
C1960      C1961   1.411       .  A
C1960     Br1971   1.928       .  S
C1961      C1962   1.411       .  A
C1961     Br1967   1.928       .  S
C1962      C1963   1.413       .  A
C1963      C1964   1.406       .  A
C1964     Br1968   1.933       .  S
C1973      C1974   1.414       .  A
C1973      C1978   1.417       .  A
C1974      C1975   1.417       .  A
C1974     Br1986   1.929       .  S
C1975      C1976   1.415       .  A
C1975     Br1990   1.929       .  S
C1976      C1979   1.497       .  S
C1976      C1977   1.406       .  A
C1977      C1978   1.406       .  A
C1978     Br1989   1.922       .  S
C1979      C1980   1.414       .  A
C1979      C1984   1.411       .  A
C1980      C1981   1.412       .  A
C1980     Br1991   1.927       .  S
C1982      C1983   1.414       .  A
C1983     Br1992   1.924       .  S
C1984     Br1988   1.934       .  S
C1993      C1994   1.414       .  A
C1993      C1998   1.416       .  A
C1994      C1995   1.408       .  A
C1994     Br2006   1.932       .  S
C1995      C1996   1.408       .  A
C1995     Br2010   1.930       .  S
C1996      C1999   1.488       .  S
C1996      C1997   1.408       .  A
C1997      C1998   1.411       .  A
C1997     Br2005   1.932       .  S
C1998     Br2009   1.924       .  S
C1999      C2000   1.409       .  A
C1999      C2004   1.409       .  A
C2000      C2001   1.410   1_556  A
C2000     Br2011   1.929   1_556  S
C2001      C2002   1.413   1_554  A
C2002      C2003   1.414       .  A
C2003      C2004   1.409       .  A
C2003     Br2012   1.930       .  S
C2004     Br2008   1.932       .  S
C2013      C2014   1.419       .  A
C2013      C2018   1.418       .  A
C2014      C2015   1.414       .  A
C2014     Br2026   1.931       .  S
C2015      C2016   1.409       .  A
C2015     Br2030   1.930       .  S
C2016      C2019   1.501       .  S
C2016      C2017   1.410       .  A
C2017      C2018   1.415       .  A
C2017     Br2025   1.931       .  S
C2018     Br2029   1.930       .  S
C2019      C2020   1.411       .  A
C2019      C2024   1.409       .  A
C2020      C2021   1.417       .  A
C2020     Br2031   1.929       .  S
C2021      C2022   1.418       .  A
C2021     Br2027   1.927       .  S
C2022      C2023   1.417       .  A
C2023      C2024   1.410       .  A
C2023     Br2032   1.934       .  S
C2024     Br2028   1.930       .  S
C2033      C2034   1.409       .  A
C2033      C2038   1.413       .  A
C2034      C2035   1.415       .  A
C2034     Br2046   1.926       .  S
C2035      C2036   1.414       .  A
C2035     Br2050   1.928       .  S
C2036      C2039   1.498       .  S
C2036      C2037   1.409       .  A
C2037      C2038   1.410       .  A
C2037     Br2045   1.929       .  S
C2038     Br2049   1.925       .  S
C2039      C2040   1.412       .  A
C2039      C2044   1.413       .  A
C2040      C2041   1.412       .  A
C2040     Br2051   1.926       .  S
C2041      C2042   1.409       .  A
C2041     Br2047   1.930       .  S
C2042      C2043   1.410       .  A
C2043      C2044   1.412       .  A
C2043     Br2052   1.925       .  S
C2044     Br2048   1.930       .  S
C2053      C2054   1.425       .  A
C2053      C2058   1.416       .  A
C2054      C2055   1.405       .  A
C2054     Br2066   1.937       .  S
C2055      C2056   1.405       .  A
C2055     Br2070   1.937       .  S
C2056      C2059   1.493       .  S
C2056      C2057   1.412       .  A
C2057      C2058   1.418       .  A
C2057     Br2065   1.927       .  S
C2058     Br2069   1.929       .  S
C2059      C2060   1.402       .  A
C2059      C2064   1.413       .  A
C2060      C2061   1.402       .  A
C2060     Br2071   1.939       .  S
C2061      C2062   1.426       .  A
C2061     Br2067   1.934       .  S
C2062      C2063   1.413       .  A
C2063      C2064   1.421       .  A
C2063     Br2072   1.923       .  S
C2064     Br2068   1.925       .  S
C2073      C2074   1.408       .  A
C2073      C2078   1.409       .  A
C2074      C2075   1.412       .  A
C2074     Br2086   1.930       .  S
C2075      C2076   1.414       .  A
C2075     Br2090   1.927       .  S
C2076      C2079   1.498   1_565  S
C2076      C2077   1.414       .  A
C2077      C2078   1.410       .  A
C2077     Br2085   1.932   1_565  S
C2078     Br2089   1.929       .  S
C2079      C2080   1.417       .  A
C2079      C2084   1.411       .  A
C2080      C2081   1.414       .  A
C2080     Br2091   1.929   1_545  S
C2081      C2082   1.409       .  A
C2081     Br2087   1.927       .  S
C2082      C2083   1.407       .  A
C2083      C2084   1.408       .  A
C2083     Br2092   1.926       .  S
C2084     Br2088   1.929       .  S
C2093      C2094   1.424       .  A
C2093      C2098   1.421       .  A
C2094      C2095   1.407       .  A
C2094     Br2106   1.934       .  S
C2095      C2096   1.406       .  A
C2095     Br2110   1.936       .  S
C2096      C2099   1.489       .  S
C2096      C2097   1.408       .  A
C2097      C2098   1.413       .  A
C2097     Br2105   1.931       .  S
C2098     Br2109   1.933       .  S
C2099      C2100   1.407       .  A
C2099      C2104   1.413       .  A
C2100      C2101   1.404       .  A
C2100     Br2111   1.931       .  S
C2101      C2102   1.412       .  A
C2102      C2103   1.409       .  A
C2103      C2104   1.412       .  A
C2103     Br2112   1.927       .  S
C2104     Br2108   1.928       .  S
C2113      C2114   1.426       .  A
C2113      C2118   1.433       .  A
C2114      C2115   1.416       .  A
C2114     Br2126   1.933       .  S
C2115      C2116   1.406       .  A
C2115     Br2130   1.930       .  S
C2116      C2119   1.496       .  S
C2116      C2117   1.404       .  A
C2117      C2118   1.411       .  A
C2117     Br2125   1.938       .  S
C2118     Br2129   1.940       .  S
C2119      C2120   1.408       .  A
C2119      C2124   1.409       .  A
C2120      C2121   1.411       .  A
C2120     Br2131   1.930       .  S
C2121      C2122   1.419       .  A
C2121     Br2127   1.933       .  S
C2122      C2123   1.417       .  A
C2123      C2124   1.412       .  A
C2123     Br2132   1.930       .  S
C2124     Br2128   1.930       .  S
C2133      C2134   1.420       .  A
C2133      C2138   1.415       .  A
C2134      C2135   1.407       .  A
C2134     Br2146   1.934       .  S
C2135      C2136   1.407       .  A
C2136      C2137   1.408       .  A
C2137      C2138   1.411       .  A
C2137     Br2145   1.928       .  S
C2138     Br2149   1.931       .  S
C2139      C2140   1.408       .  A
C2140      C2141   1.406       .  A
C2140     Br2151   1.931       .  S
C2141      C2142   1.413       .  A
C2141     Br2147   1.932       .  S
C2142      C2143   1.409       .  A
C2143     Br2152   1.927   1_565  S
C2144     Br2148   1.928       .  S
C2153      C2154   1.422       .  A
C2153      C2158   1.426       .  A
C2154      C2155   1.413       .  A
C2154     Br2166   1.933       .  S
C2155      C2156   1.407       .  A
C2155     Br2170   1.929       .  S
C2156      C2159   1.485       .  S
C2156      C2157   1.403       .  A
C2157      C2158   1.403       .  A
C2157     Br2165   1.936       .  S
C2158     Br2169   1.939       .  S
C2159      C2160   1.406       .  A
C2159      C2164   1.407       .  A
C2160      C2161   1.409       .  A
C2160     Br2171   1.931       .  S
C2161      C2162   1.420       .  A
C2161     Br2167   1.933       .  S
C2162      C2163   1.420       .  A
C2163      C2164   1.409       .  A
C2163     Br2172   1.933       .  S
C2164     Br2168   1.933       .  S
C2173      C2174   1.422       .  A
C2173      C2178   1.414       .  A
C2174      C2175   1.411       .  A
C2174     Br2186   1.929       .  S
C2175      C2176   1.409       .  A
C2175     Br2190   1.933       .  S
C2176      C2179   1.503       .  S
C2176      C2177   1.414       .  A
C2177      C2178   1.415       .  A
C2177     Br2185   1.930       .  S
C2178     Br2189   1.931       .  S
C2179      C2180   1.414       .  A
C2179      C2184   1.408       .  A
C2180      C2181   1.417       .  A
C2180     Br2191   1.931       .  S
C2181      C2182   1.417       .  A
C2181     Br2187   1.931       .  S
C2182      C2183   1.420       .  A
C2183      C2184   1.411       .  A
C2183     Br2192   1.924       .  S
C2184     Br2188   1.934       .  S
C2193      C2198   1.414       .  A
C2194      C2195   1.409       .  A
C2194     Br2206   1.937       .  S
C2195      C2196   1.408       .  A
C2195     Br2210   1.934       .  S
C2196      C2199   1.500       .  S
C2196      C2197   1.415       .  A
C2198     Br2209   1.928       .  S
C2199      C2200   1.403       .  A
C2199      C2204   1.414       .  A
C2200      C2201   1.406       .  A
C2200     Br2211   1.939       .  S
C2201      C2202   1.431       .  A
C2201     Br2207   1.935       .  S
C2202      C2203   1.421       .  A
C2203      C2204   1.421       .  A
C2203     Br2212   1.929       .  S
C2204     Br2208   1.929       .  S
C2213      C2214   1.413       .  A
C2213      C2218   1.413       .  A
C2214      C2215   1.408       .  A
C2214     Br2226   1.925       .  S
C2215      C2216   1.408       .  A
C2215     Br2230   1.930       .  S
C2216      C2219   1.485       .  S
C2216      C2217   1.408       .  A
C2217      C2218   1.407       .  A
C2217     Br2225   1.929       .  S
C2218     Br2229   1.932       .  S
C2219      C2220   1.406       .  A
C2219      C2224   1.408       .  A
C2220      C2221   1.409       .  A
C2220     Br2231   1.930       .  S
C2221      C2222   1.416       .  A
C2221     Br2227   1.928       .  S
C2222      C2223   1.414       .  A
C2223      C2224   1.408       .  A
C2223     Br2232   1.930       .  S
C2224     Br2228   1.932       .  S
C2233      C2234   1.414       .  A
C2233      C2238   1.413   1_556  A
C2234      C2235   1.410       .  A
C2234     Br2246   1.929       .  S
C2235      C2236   1.409       .  A
C2235     Br2250   1.931       .  S
C2236      C2239   1.495       .  S
C2236      C2237   1.411       .  A
C2237      C2238   1.414   1_556  A
C2237     Br2245   1.928   1_556  S
C2238     Br2249   1.929       .  S
C2239      C2240   1.410       .  A
C2239      C2244   1.408       .  A
C2240      C2241   1.415       .  A
C2240     Br2251   1.928       .  S
C2241      C2242   1.419       .  A
C2241     Br2247   1.931       .  S
C2242      C2243   1.416       .  A
C2243      C2244   1.409       .  A
C2243     Br2252   1.932       .  S
C2244     Br2248   1.931       .  S
C2253      C2254   1.414       .  A
C2253      C2258   1.411       .  A
C2254      C2255   1.409       .  A
C2254     Br2266   1.930       .  S
C2255      C2256   1.410       .  A
C2255     Br2270   1.932       .  S
C2256      C2259   1.491       .  S
C2256      C2257   1.410       .  A
C2257      C2258   1.412       .  A
C2257     Br2265   1.927       .  S
C2258     Br2269   1.928       .  S
C2259      C2260   1.408       .  A
C2259      C2264   1.409       .  A
C2260      C2261   1.407       .  A
C2260     Br2271   1.932       .  S
C2261      C2262   1.417       .  A
C2261     Br2267   1.934       .  S
C2262      C2263   1.418       .  A
C2263      C2264   1.413       .  A
C2264     Br2268   1.929       .  S
C2273      C2274   1.418       .  A
C2273      C2278   1.416       .  A
C2274      C2275   1.406       .  A
C2274     Br2286   1.934       .  S
C2275      C2276   1.406       .  A
C2275     Br2290   1.932       .  S
C2276      C2279   1.486       .  S
C2276      C2277   1.408       .  A
C2277      C2278   1.411       .  A
C2277     Br2285   1.930       .  S
C2278     Br2289   1.929       .  S
C2279      C2280   1.409       .  A
C2279      C2284   1.407       .  A
C2280      C2281   1.411       .  A
C2280     Br2291   1.928       .  S
C2281      C2282   1.414       .  A
C2281     Br2287   1.930       .  S
C2282      C2283   1.416       .  A
C2283      C2284   1.406       .  A
C2283     Br2292   1.931       .  S
C2284     Br2288   1.933       .  S
C2293      C2294   1.428       .  A
C2293      C2298   1.420       .  A
C2294      C2295   1.409       .  A
C2294     Br2306   1.926       .  S
C2295      C2296   1.402       .  A
C2296      C2299   1.495       .  S
C2296      C2297   1.410       .  A
C2297      C2298   1.418       .  A
C2297     Br2305   1.929       .  S
C2298     Br2309   1.927       .  S
C2299      C2300   1.413       .  A
C2299      C2304   1.411       .  A
C2300      C2301   1.415       .  A
C2300     Br2311   1.926       .  S
C2302      C2303   1.408       .  A
C2303     Br2312   1.929       .  S
C2304     Br2308   1.931       .  S
C2313      C2314   1.415       .  A
C2313      C2318   1.412       .  A
C2314      C2315   1.405       .  A
C2314     Br2326   1.933       .  S
C2315      C2316   1.407   1_556  A
C2315     Br2330   1.931       .  S
C2316      C2317   1.411       .  A
C2317      C2318   1.413   1_554  A
C2318     Br2329   1.926   1_546  S
C2319      C2320   1.409       .  A
C2319      C2324   1.408       .  A
C2320      C2321   1.412       .  A
C2320     Br2331   1.929       .  S
C2321      C2322   1.415       .  A
C2321     Br2327   1.929       .  S
C2322      C2323   1.418       .  A
C2323      C2324   1.409       .  A
C2323     Br2332   1.933       .  S
C2333      C2334   1.423       .  A
C2333      C2338   1.420       .  A
C2334      C2335   1.402       .  A
C2334     Br2346   1.939       .  S
C2335      C2336   1.404       .  A
C2335     Br2350   1.935       .  S
C2336      C2339   1.480       .  S
C2336      C2337   1.406       .  A
C2337      C2338   1.411       .  A
C2337     Br2345   1.929       .  S
C2338     Br2349   1.932       .  S
C2339      C2340   1.404       .  A
C2339      C2344   1.407       .  A
C2340      C2341   1.405       .  A
C2340     Br2351   1.931       .  S
C2341      C2342   1.417       .  A
C2341     Br2347   1.931       .  S
C2342      C2343   1.418       .  A
C2343      C2344   1.408       .  A
C2343     Br2352   1.933       .  S
C2344     Br2348   1.933       .  S
C2353      C2354   1.414       .  A
C2353      C2358   1.416       .  A
C2354      C2355   1.412       .  A
C2354     Br2366   1.926       .  S
C2355      C2356   1.410       .  A
C2355     Br2370   1.930       .  S
C2356      C2359   1.493       .  S
C2356      C2357   1.408       .  A
C2357      C2358   1.409       .  A
C2357     Br2365   1.930       .  S
C2358     Br2369   1.933       .  S
C2359      C2360   1.409       .  A
C2359      C2364   1.410       .  A
C2360      C2361   1.411       .  A
C2360     Br2371   1.928       .  S
C2361      C2362   1.414       .  A
C2362      C2363   1.416       .  A
C2363      C2364   1.411       .  A
C2363     Br2372   1.931       .  S
C2364     Br2368   1.933       .  S
C2373      C2374   1.417       .  A
C2373      C2378   1.415       .  A
C2374      C2375   1.413       .  A
C2374     Br2386   1.926       .  S
C2375      C2376   1.408       .  A
C2375     Br2390   1.929       .  S
C2376      C2379   1.489       .  S
C2376      C2377   1.408       .  A
C2377      C2378   1.407       .  A
C2377     Br2385   1.931       .  S
C2378     Br2389   1.932       .  S
C2379      C2380   1.409       .  A
C2379      C2384   1.410       .  A
C2380      C2381   1.408       .  A
C2380     Br2391   1.932       .  S
C2381      C2382   1.413       .  A
C2381     Br2387   1.930       .  S
C2382      C2383   1.410       .  A
C2383      C2384   1.410       .  A
C2383     Br2392   1.929       .  S
C2384     Br2388   1.927       .  S
C2393      C2394   1.423       .  A
C2393      C2398   1.415       .  A
C2394      C2395   1.406       .  A
C2394     Br2406   1.935       .  S
C2395      C2396   1.405       .  A
C2395     Br2410   1.936       .  S
C2396      C2399   1.496       .  S
C2396      C2397   1.413       .  A
C2397      C2398   1.419       .  A
C2397     Br2405   1.926       .  S
C2398     Br2409   1.928       .  S
C2399      C2400   1.410       .  A
C2399      C2404   1.403       .  A
C2400      C2401   1.419       .  A
C2400     Br2411   1.929       .  S
C2401      C2402   1.422       .  A
C2401     Br2407   1.926       .  S
C2402      C2403   1.431       .  A
C2403      C2404   1.408       .  A
C2403     Br2412   1.938       .  S
C2404     Br2408   1.938       .  S
C2413      C2414   1.424       .  A
C2413      C2418   1.415       .  A
C2414      C2415   1.409       .  A
C2414     Br2426   1.937       .  S
C2415      C2416   1.408       .  A
C2415     Br2430   1.936       .  S
C2416      C2419   1.499   1_545  S
C2416      C2417   1.412       .  A
C2417      C2418   1.417       .  A
C2417     Br2425   1.927   1_545  S
C2418     Br2429   1.928       .  S
C2419      C2420   1.413       .  A
C2419      C2424   1.407       .  A
C2420      C2421   1.418       .  A
C2420     Br2431   1.926   1_565  S
C2421      C2422   1.414       .  A
C2421     Br2427   1.927       .  S
C2422      C2423   1.425       .  A
C2423      C2424   1.407       .  A
C2423     Br2432   1.937       .  S
C2424     Br2428   1.936       .  S
C2433      C2434   1.414       .  A
C2433      C2438   1.415       .  A
C2434      C2435   1.410       .  A
C2434     Br2446   1.931       .  S
C2435      C2436   1.410       .  A
C2435     Br2450   1.931       .  S
C2436      C2439   1.492       .  S
C2436      C2437   1.409       .  A
C2437      C2438   1.411       .  A
C2437     Br2445   1.929       .  S
C2438     Br2449   1.931       .  S
C2439      C2440   1.408       .  A
C2439      C2444   1.407       .  A
C2440      C2441   1.414       .  A
C2440     Br2451   1.931       .  S
C2441      C2442   1.419       .  A
C2441     Br2447   1.926       .  S
C2442      C2443   1.420       .  A
C2443      C2444   1.410       .  A
C2443     Br2452   1.933       .  S
C2444     Br2448   1.932       .  S
C2453      C2454   1.415       .  A
C2453      C2458   1.421       .  A
C2454      C2455   1.411       .  A
C2454     Br2466   1.929       .  S
C2455      C2456   1.407       .  A
C2455     Br2470   1.928       .  S
C2456      C2457   1.406       .  A
C2457      C2458   1.406       .  A
C2457     Br2465   1.935       .  S
C2458     Br2469   1.935       .  S
C2459      C2460   1.407   1_554  A
C2460      C2461   1.403       .  A
C2460     Br2471   1.931       .  S
C2461      C2462   1.412       .  A
C2461     Br2467   1.931       .  S
C2462      C2463   1.411   1_556  A
C2464     Br2468   1.927       .  S
C2473      C2474   1.417       .  A
C2473      C2478   1.419       .  A
C2474     Br2486   1.927   1_455  S
C2475     Br2490   1.928       .  S
C2476      C2477   1.403       .  A
C2477      C2478   1.405       .  A
C2477     Br2485   1.935       .  S
C2478     Br2489   1.922       .  S
C2479      C2480   1.408       .  A
C2479      C2484   1.406       .  A
C2480      C2481   1.413       .  A
C2480     Br2491   1.929       .  S
C2481      C2482   1.417       .  A
C2481     Br2487   1.927       .  S
C2482      C2483   1.424       .  A
C2483      C2484   1.406       .  A
C2483     Br2492   1.936       .  S
C2493      C2494   1.418       .  A
C2493      C2498   1.423       .  A
C2494      C2495   1.414       .  A
C2494     Br2506   1.927       .  S
C2495      C2496   1.409       .  A
C2495     Br2510   1.930       .  S
C2496      C2499   1.491       .  S
C2496      C2497   1.406       .  A
C2497      C2498   1.407       .  A
C2497     Br2505   1.935       .  S
C2498     Br2509   1.936       .  S
C2499      C2500   1.408       .  A
C2499      C2504   1.408       .  A
C2500      C2501   1.410       .  A
C2500     Br2511   1.932       .  S
C2501      C2502   1.421       .  A
C2501     Br2507   1.934       .  S
C2502      C2503   1.418       .  A
C2503      C2504   1.410       .  A
C2503     Br2512   1.933       .  S
C2504     Br2508   1.933       .  S
C2513      C2514   1.419       .  A
C2514      C2515   1.419       .  A
C2514     Br2526   1.928       .  S
C2515     Br2530   1.927       .  S
C2516      C2519   1.492       .  S
C2516      C2517   1.401       .  A
C2517      C2518   1.403       .  A
C2517     Br2525   1.939       .  S
C2518     Br2529   1.932       .  S
C2519      C2520   1.411       .  A
C2519      C2524   1.408       .  A
C2520      C2521   1.413       .  A
C2520     Br2531   1.928       .  S
C2521      C2522   1.410       .  A
C2521     Br2527   1.918       .  S
C2522      C2523   1.415       .  A
C2523      C2524   1.408       .  A
C2523     Br2532   1.933   1_455  S
C2524     Br2528   1.931       .  S
C2533      C2534   1.410       .  A
C2533      C2538   1.411       .  A
C2534      C2535   1.412       .  A
C2534     Br2546   1.928       .  S
C2535      C2536   1.411       .  A
C2535     Br2550   1.927       .  S
C2536      C2539   1.488       .  S
C2536      C2537   1.410       .  A
C2537      C2538   1.404       .  A
C2537     Br2545   1.935       .  S
C2538     Br2549   1.926       .  S
C2539      C2540   1.412       .  A
C2539      C2544   1.410       .  A
C2540      C2541   1.411       .  A
C2540     Br2551   1.928       .  S
C2541      C2542   1.408       .  A
C2541     Br2547   1.929       .  S
C2542      C2543   1.410       .  A
C2543      C2544   1.404       .  A
C2544     Br2548   1.931       .  S
C2553      C2554   1.418       .  A
C2553      C2558   1.417       .  A
C2554      C2555   1.410       .  A
C2554     Br2566   1.931       .  S
C2555      C2556   1.408       .  A
C2555     Br2570   1.932       .  S
C2556      C2559   1.495       .  S
C2556      C2557   1.410       .  A
C2557      C2558   1.415       .  A
C2557     Br2565   1.928       .  S
C2558     Br2569   1.930       .  S
C2559      C2560   1.407       .  A
C2559      C2564   1.410       .  A
C2560      C2561   1.409       .  A
C2560     Br2571   1.930       .  S
C2561      C2562   1.418       .  A
C2561     Br2567   1.933       .  S
C2562      C2563   1.418       .  A
C2563      C2564   1.415       .  A
C2563     Br2572   1.929       .  S
C2564     Br2568   1.929       .  S
C2573      C2574   1.414       .  A
C2573      C2578   1.427       .  A
C2574      C2575   1.421       .  A
C2574     Br2586   1.921       .  S
C2575      C2576   1.413       .  A
C2575     Br2590   1.927       .  S
C2576      C2579   1.502       .  S
C2576      C2577   1.406       .  A
C2577      C2578   1.408       .  A
C2577     Br2585   1.937       .  S
C2578     Br2589   1.939       .  S
C2579      C2580   1.414       .  A
C2579      C2584   1.405       .  A
C2580      C2581   1.422       .  A
C2580     Br2591   1.928       .  S
C2581      C2582   1.419       .  A
C2581     Br2587   1.927       .  S
C2582      C2583   1.427       .  A
C2583      C2584   1.406       .  A
C2583     Br2592   1.939   1_655  S
C2584     Br2588   1.936       .  S
C2593      C2594   1.417       .  A
C2593      C2598   1.419       .  A
C2594      C2595   1.408       .  A
C2594     Br2606   1.933       .  S
C2595      C2596   1.408       .  A
C2595     Br2610   1.932       .  S
C2596      C2599   1.492       .  S
C2596      C2597   1.409       .  A
C2597      C2598   1.414       .  A
C2597     Br2605   1.930       .  S
C2598     Br2609   1.928       .  S
C2599      C2600   1.409       .  A
C2599      C2604   1.409       .  A
C2600      C2601   1.412       .  A
C2600     Br2611   1.930       .  S
C2601      C2602   1.417       .  A
C2601     Br2607   1.931       .  S
C2602      C2603   1.415       .  A
C2603      C2604   1.409       .  A
C2603     Br2612   1.931       .  S
C2604     Br2608   1.931       .  S
C2613      C2614   1.414       .  A
C2613      C2618   1.421       .  A
C2614      C2615   1.416       .  A
C2614     Br2626   1.925       .  S
C2615      C2616   1.412       .  A
C2615     Br2630   1.928       .  S
C2616      C2619   1.505       .  S
C2616      C2617   1.410       .  A
C2617      C2618   1.415       .  A
C2617     Br2625   1.931       .  S
C2618     Br2629   1.932       .  S
C2619      C2620   1.409       .  A
C2619      C2624   1.416       .  A
C2620      C2621   1.410       .  A
C2620     Br2631   1.931       .  S
C2621      C2622   1.412       .  A
C2622      C2623   1.411       .  A
C2623      C2624   1.420       .  A
C2623     Br2632   1.927       .  S
C2624     Br2628   1.927       .  S
C2633      C2634   1.414       .  A
C2633      C2638   1.409       .  A
C2634      C2635   1.406       .  A
C2634     Br2646   1.930       .  S
C2635      C2636   1.407       .  A
C2635     Br2650   1.932       .  S
C2636      C2639   1.489   1_655  S
C2636      C2637   1.411       .  A
C2637      C2638   1.413       .  A
C2637     Br2645   1.928       .  S
C2638     Br2649   1.922       .  S
C2639      C2640   1.402       .  A
C2639      C2644   1.410       .  A
C2640      C2641   1.407       .  A
C2640     Br2651   1.935       .  S
C2641      C2642   1.426       .  A
C2641     Br2647   1.934       .  S
C2642      C2643   1.418       .  A
C2643      C2644   1.414       .  A
C2643     Br2652   1.932       .  S
C2644     Br2648   1.930   1_455  S
C2653      C2654   1.415       .  A
C2653      C2658   1.420       .  A
C2654      C2655   1.410       .  A
C2654     Br2666   1.930       .  S
C2655      C2656   1.408       .  A
C2655     Br2670   1.930       .  S
C2656      C2659   1.483       .  S
C2656      C2657   1.404       .  A
C2657      C2658   1.405       .  A
C2657     Br2665   1.933       .  S
C2658     Br2669   1.933       .  S
C2659      C2660   1.405       .  A
C2659      C2664   1.404       .  A
C2660      C2661   1.408       .  A
C2660     Br2671   1.933       .  S
C2661      C2662   1.423       .  A
C2662      C2663   1.422       .  A
C2663      C2664   1.408       .  A
C2663     Br2672   1.934       .  S
C2664     Br2668   1.932       .  S
C2673      C2674   1.413       .  A
C2673      C2678   1.417       .  A
C2674      C2675   1.416       .  A
C2674     Br2686   1.927       .  S
C2675      C2676   1.412       .  A
C2675     Br2690   1.927       .  S
C2676      C2679   1.495       .  S
C2676      C2677   1.407       .  A
C2677      C2678   1.409       .  A
C2677     Br2685   1.933       .  S
C2678     Br2689   1.929       .  S
C2679      C2680   1.412       .  A
C2679      C2684   1.409       .  A
C2680      C2681   1.414       .  A
C2680     Br2691   1.928       .  S
C2681      C2682   1.410       .  A
C2681     Br2687   1.927       .  S
C2682      C2683   1.416       .  A
C2683      C2684   1.409       .  A
C2683     Br2692   1.933       .  S
C2684     Br2688   1.931       .  S
C2693      C2694   1.423       .  A
C2693      C2698   1.423       .  A
C2694      C2695   1.411       .  A
C2694     Br2706   1.933       .  S
C2695      C2696   1.405       .  A
C2695     Br2710   1.934       .  S
C2696      C2699   1.487       .  S
C2696      C2697   1.406       .  A
C2697      C2698   1.408       .  A
C2697     Br2705   1.934       .  S
C2698     Br2709   1.935       .  S
C2699      C2700   1.404       .  A
C2699      C2704   1.409       .  A
C2700      C2701   1.401       .  A
C2700     Br2711   1.935       .  S
C2701      C2702   1.422       .  A
C2701     Br2707   1.938       .  S
C2702      C2703   1.421       .  A
C2703      C2704   1.414       .  A
C2703     Br2712   1.933       .  S
C2704     Br2708   1.929       .  S
C2713      C2714   1.414       .  A
C2713      C2718   1.418       .  A
C2714      C2715   1.414       .  A
C2714     Br2726   1.929   1_556  S
C2715      C2716   1.411       .  A
C2715     Br2730   1.927       .  S
C2716      C2719   1.496       .  S
C2716      C2717   1.409       .  A
C2717      C2718   1.409       .  A
C2717     Br2725   1.933       .  S
C2718     Br2729   1.934       .  S
C2719      C2720   1.410       .  A
C2719      C2724   1.406       .  A
C2720      C2721   1.418       .  A
C2720     Br2731   1.928       .  S
C2721      C2722   1.420       .  A
C2721     Br2727   1.928       .  S
C2722      C2723   1.423       .  A
C2723      C2724   1.408       .  A
C2723     Br2732   1.928       .  S
C2724     Br2728   1.937       .  S
C2733      C2734   1.410       .  A
C2734     Br2746   1.928       .  S
C2735      C2736   1.412       .  A
C2736      C2739   1.490       .  S
C2736      C2737   1.408       .  A
C2737      C2738   1.409       .  A
C2737     Br2745   1.929       .  S
C2738     Br2749   1.926       .  S
C2739      C2740   1.411       .  A
C2739      C2744   1.405       .  A
C2740      C2741   1.415       .  A
C2740     Br2751   1.928       .  S
C2741      C2742   1.417       .  A
C2741     Br2747   1.932       .  S
C2742      C2743   1.417       .  A
C2743      C2744   1.405       .  A
C2743     Br2752   1.924       .  S
C2744     Br2748   1.933       .  S
C2753      C2754   1.417       .  A
C2753      C2758   1.420       .  A
C2754      C2755   1.400       .  A
C2754     Br2766   1.933       .  S
C2755      C2756   1.405       .  A
C2755     Br2770   1.936       .  S
C2756      C2759   1.478       .  S
C2756      C2757   1.406       .  A
C2757      C2758   1.410       .  A
C2757     Br2765   1.930       .  S
C2758     Br2769   1.934       .  S
C2759      C2760   1.406       .  A
C2759      C2764   1.405       .  A
C2760      C2761   1.409       .  A
C2760     Br2771   1.930       .  S
C2761      C2762   1.414       .  A
C2761     Br2767   1.923       .  S
C2762      C2763   1.416       .  A
C2763      C2764   1.402       .  A
C2763     Br2772   1.929       .  S
C2764     Br2768   1.934       .  S
C2773      C2774   1.420       .  A
C2773      C2778   1.428       .  A
C2774      C2775   1.411       .  A
C2774     Br2786   1.934       .  S
C2775      C2776   1.408       .  A
C2776      C2777   1.402       .  A
C2777      C2778   1.404       .  A
C2777     Br2785   1.937       .  S
C2778     Br2789   1.941       .  S
C2779      C2784   1.401       .  A
C2780     Br2791   1.929       .  S
C2781      C2782   1.416       .  A
C2781     Br2787   1.928       .  S
C2782      C2783   1.423       .  A
C2783      C2784   1.401       .  A
C2783     Br2792   1.923       .  S
C2784     Br2788   1.939       .  S
C2793      C2794   1.419       .  A
C2793      C2798   1.437       .  A
C2794      C2795   1.410       .  A
C2794     Br2806   1.932       .  S
C2795      C2796   1.404       .  A
C2795     Br2810   1.932       .  S
C2796      C2797   1.400       .  A
C2797      C2798   1.408       .  A
C2797     Br2805   1.938       .  S
C2798     Br2809   1.938       .  S
C2799      C2800   1.408   1_554  A
C2800      C2801   1.403       .  A
C2800     Br2811   1.932       .  S
C2801      C2802   1.412       .  A
C2801     Br2807   1.933       .  S
C2802      C2803   1.414       .  A
C2804     Br2808   1.929       .  S
C2813      C2814   1.409       .  A
C2813      C2818   1.408       .  A
C2814      C2815   1.413       .  A
C2814     Br2826   1.930       .  S
C2815      C2816   1.418       .  A
C2815     Br2830   1.932       .  S
C2816      C2819   1.496       .  S
C2816      C2817   1.412       .  A
C2817      C2818   1.401       .  A
C2817     Br2825   1.932       .  S
C2818     Br2829   1.925       .  S
C2819      C2820   1.410       .  A
C2819      C2824   1.414       .  A
C2820      C2821   1.406       .  A
C2820     Br2831   1.933       .  S
C2821      C2822   1.420       .  A
C2821     Br2827   1.930       .  S
C2822      C2823   1.412       .  A
C2823      C2824   1.409       .  A
C2823     Br2832   1.927       .  S
C2824     Br2828   1.932       .  S
C2833      C2834   1.414       .  A
C2833      C2838   1.418       .  A
C2834      C2835   1.421       .  A
C2834     Br2846   1.926       .  S
C2835      C2836   1.416       .  A
C2835     Br2850   1.928       .  S
C2836      C2839   1.508   1_455  S
C2836      C2837   1.411       .  A
C2837      C2838   1.410       .  A
C2837     Br2845   1.934   1_455  S
C2838     Br2849   1.930       .  S
C2839      C2840   1.414       .  A
C2839      C2844   1.414       .  A
C2840      C2841   1.413       .  A
C2840     Br2851   1.930       .  S
C2841      C2842   1.411       .  A
C2841     Br2847   1.928       .  S
C2842      C2843   1.416       .  A
C2843      C2844   1.418       .  A
C2843     Br2852   1.928       .  S
C2844     Br2848   1.929   1_655  S
C2853      C2854   1.411       .  A
C2853      C2858   1.416       .  A
C2854      C2855   1.415       .  A
C2854     Br2866   1.929       .  S
C2855      C2856   1.413       .  A
C2855     Br2870   1.927       .  S
C2856      C2859   1.494       .  S
C2856      C2857   1.409       .  A
C2857      C2858   1.405       .  A
C2857     Br2865   1.935       .  S
C2858     Br2869   1.931       .  S
C2859      C2860   1.413       .  A
C2859      C2864   1.410       .  A
C2860      C2861   1.410       .  A
C2860     Br2871   1.931       .  S
C2861      C2862   1.409       .  A
C2861     Br2867   1.925       .  S
C2862      C2863   1.412       .  A
C2863      C2864   1.409       .  A
C2863     Br2872   1.928       .  S
C2864     Br2868   1.929       .  S
C2873      C2874   1.428       .  A
C2873      C2878   1.423       .  A
C2874      C2875   1.408       .  A
C2874     Br2886   1.938       .  S
C2875      C2876   1.404       .  A
C2875     Br2890   1.937       .  S
C2876      C2879   1.489       .  S
C2876      C2877   1.406       .  A
C2877      C2878   1.414       .  A
C2877     Br2885   1.930       .  S
C2878     Br2889   1.931       .  S
C2879      C2880   1.408       .  A
C2879      C2884   1.412       .  A
C2880      C2881   1.404       .  A
C2880     Br2891   1.932       .  S
C2881      C2882   1.410       .  A
C2881     Br2887   1.929       .  S
C2882      C2883   1.409       .  A
C2883      C2884   1.412       .  A
C2883     Br2892   1.930       .  S
C2884     Br2888   1.926       .  S
C2893      C2894   1.416       .  A
C2893      C2898   1.422       .  A
C2894      C2895   1.417       .  A
C2894     Br2906   1.926       .  S
C2895      C2896   1.412       .  A
C2895     Br2910   1.930       .  S
C2896      C2899   1.500       .  S
C2896      C2897   1.406       .  A
C2897      C2898   1.412       .  A
C2897     Br2905   1.933       .  S
C2898     Br2909   1.926       .  S
C2899      C2900   1.413       .  A
C2899      C2904   1.407       .  A
C2900      C2901   1.416       .  A
C2900     Br2911   1.928       .  S
C2901      C2902   1.413       .  A
C2901     Br2907   1.926       .  S
C2902      C2903   1.421       .  A
C2903      C2904   1.411       .  A
C2904     Br2908   1.932       .  S
C2913      C2914   1.414       .  A
C2913      C2918   1.415       .  A
C2914      C2915   1.403       .  A
C2914     Br2926   1.933       .  S
C2915      C2916   1.407       .  A
C2915     Br2930   1.932       .  S
C2916      C2919   1.479       .  S
C2916      C2917   1.407       .  A
C2917      C2918   1.407       .  A
C2917     Br2925   1.931       .  S
C2918     Br2929   1.927       .  S
C2919      C2920   1.407       .  A
C2919      C2924   1.408       .  A
C2920      C2921   1.405       .  A
C2920     Br2931   1.934       .  S
C2921      C2922   1.415       .  A
C2921     Br2927   1.931       .  S
C2922      C2923   1.411       .  A
C2923      C2924   1.406       .  A
C2924     Br2928   1.929       .  S
C2933      C2934   1.414       .  A
C2933      C2938   1.411       .  A
C2934      C2935   1.409       .  A
C2934     Br2946   1.923       .  S
C2935      C2936   1.407       .  A
C2935     Br2950   1.932       .  S
C2936      C2939   1.498       .  S
C2936      C2937   1.414       .  A
C2937      C2938   1.417       .  A
C2937     Br2945   1.927       .  S
C2938     Br2949   1.928       .  S
C2939      C2940   1.414       .  A
C2939      C2944   1.409       .  A
C2940      C2941   1.415       .  A
C2940     Br2951   1.927       .  S
C2941      C2942   1.408       .  A
C2941     Br2947   1.928       .  S
C2942      C2943   1.413       .  A
C2943      C2944   1.410       .  A
C2943     Br2952   1.929       .  S
C2944     Br2948   1.930       .  S
