geometry optimzed in LAMMPS
_audit_creation_date              2020-12-01 
_audit_creation_method            'lammps2cif' 
_symmetry_space_group_name_H-M    'P1' 
_symmetry_Int_Tables_number       1 
_symmetry_cell_setting            triclinic 
loop_ 
_symmetry_equiv_pos_as_xyz 
  x,y,z 
_cell_length_a                    26.12276841 
_cell_length_b                    26.20646300021175 
_cell_length_c                    41.31710818939504 
_cell_angle_alpha                 89.91293155274721 
_cell_angle_beta                  89.8850697049181 
_cell_angle_gamma                 89.85838319942873 
loop_ 
_atom_site_label 
_atom_site_type_symbol 
_atom_site_fract_x 
_atom_site_fract_y 
_atom_site_fract_z 
_atom_site_charge 
O1          O  0.67166894  0.79427073  0.18267943    -0.85500
O2          O  0.75138985  0.79508393  0.14137274    -0.82600
C3          C  0.78633609  0.81224725  0.12371773     0.97900
O4          O  0.81596024  0.84686966  0.13408671    -0.82600
O5          O  0.75523869  0.93438868  0.13719163    -0.85200
C6          C  0.72432409  0.96757159  0.14749822     1.02500
O7          O  0.70461594  0.96273530  0.17541234    -0.78000
O8          O  0.65130753  0.87434797  0.17346549    -0.78200
C9          C  0.64202596  0.82769980  0.17043052     1.02400
O10         O  0.74505359  0.79666251  0.23552603    -0.85500
O11         O  0.82618125  0.79182107  0.19381595    -0.82600
C12         C  0.85785052  0.82518499  0.20369437     0.98000
O13         O  0.84969395  0.87173457  0.19900060    -0.82600
O14         O  0.79696020  0.96015218  0.19946089    -0.85200
C15         C  0.77649402  0.96483868  0.22726315     1.02400
O16         O  0.74336194  0.93357809  0.23704049    -0.78000
O17         O  0.67981221  0.84896151  0.23897130    -0.78200
C18         C  0.70714284  0.81353064  0.25078831     1.02400
Cr19       Cr  0.74888474  0.79950353  0.18830339     1.93700
Cr20       Cr  0.80069996  0.90035829  0.16869993     1.93200
Cr21       Cr  0.69849211  0.90187447  0.20501431     1.39100
O22         O  0.74963182  0.86710363  0.18747222    -1.23300
O23         O  0.83056531  0.72612281  0.43068143    -0.85500
O24         O  0.75147372  0.72437233  0.38842320    -0.82600
C25         C  0.71342434  0.71048955  0.37234730     0.97900
O26         O  0.68565660  0.67429501  0.38258429    -0.82600
O27         O  0.74972586  0.58895295  0.38520168    -0.85200
C28         C  0.77996053  0.55556520  0.39602135     1.02500
O29         O  0.79724544  0.55912501  0.42466559    -0.78000
O30         O  0.85235617  0.64545857  0.42610408    -0.78200
C31         C  0.86203259  0.69171277  0.42160287     1.02400
O32         O  0.75445202  0.72578016  0.48280335    -0.85500
O33         O  0.67568039  0.72748936  0.44077573    -0.82600
C34         C  0.64494854  0.69376057  0.45156901     0.98000
O35         O  0.65297534  0.64724188  0.44673363    -0.82600
O36         O  0.70552911  0.55896249  0.44587690    -0.85200
C37         C  0.72240199  0.55482616  0.47455367     1.02400
O38         O  0.75252072  0.58777450  0.48563463    -0.78000
O39         O  0.81698722  0.67129255  0.48991020    -0.78200
C40         C  0.78508438  0.71124130  0.99939327     1.02400
Cr41       Cr  0.75304649  0.72104853  0.43561102     1.93700
Cr42       Cr  0.70221241  0.62018705  0.41629834     1.93200
Cr43       Cr  0.80119857  0.61880787  0.45529816     1.39100
O44         O  0.75226590  0.65367366  0.43574282    -1.23300
O45         O  0.22076912  0.75315570  0.26516640    -0.85500
O46         O  0.22179859  0.83447728  0.30602638    -0.82600
C47         C  0.18823025  0.86509043  0.29497938     0.97900
O48         O  0.14140081  0.85612520  0.29834844    -0.82600
O49         O  0.05224424  0.80356636  0.29945671    -0.85200
C50         C  0.04726558  0.78377200  0.27155505     1.02500
O51         O  0.08000110  0.75214523  0.26155190    -0.78000
O52         O  0.16657756  0.69017823  0.25946441    -0.78200
C53         C  0.20395199  0.71637667  0.24905025     1.02400
O54         O  0.22192544  0.68131021  0.31846173    -0.85500
O55         O  0.21910214  0.76225593  0.35945490    -0.82600
C56         C  0.20241504  0.79966922  0.37513977     0.98000
O57         O  0.16612489  0.82657308  0.36382431    -0.82600
O58         O  0.08093422  0.76429517  0.36164858    -0.85200
C59         C  0.04891791  0.73194709  0.35212213     1.02400
O60         O  0.05283527  0.71211664  0.32416864    -0.78000
O61         O  0.14130348  0.65936524  0.32460598    -0.78200
C62         C  0.18795599  0.65121210  0.32935175     1.02400
Cr63       Cr  0.21553775  0.75781211  0.31221204     1.93700
Cr64       Cr  0.11312377  0.80888386  0.32955017     1.93200
Cr65       Cr  0.11318875  0.70723003  0.29361922     1.39100
O66         O  0.14752413  0.75793735  0.31171855    -1.23300
O67         O  0.28062675  0.76289494  0.01732609    -0.85500
O68         O  0.28256034  0.68211313  0.05863554    -0.82600
C69         C  0.31570577  0.65091909  0.04748016     0.97900
O70         O  0.36273358  0.65969545  0.04994717    -0.82600
O71         O  0.45157416  0.71260878  0.04884820    -0.85200
C72         C  0.45458610  0.73095500  0.02048043     1.02500
O73         O  0.42085738  0.76138495  0.01043422    -0.78000
O74         O  0.33539655  0.82435318  0.00860029    -0.78200
C75         C  0.30246351  0.80533996  0.49874584     1.02400
O76         O  0.28386417  0.83639204  0.07050830    -0.85500
O77         O  0.28845879  0.75529797  0.11160360    -0.82600
C78         C  0.30526027  0.71746025  0.12681186     0.98000
O79         O  0.34089012  0.69048156  0.11498163    -0.82600
O80         O  0.42511878  0.75448105  0.11059247    -0.85200
C81         C  0.45722303  0.78589606  0.09969805     1.02400
O82         O  0.45211879  0.80407531  0.07133536    -0.78000
O83         O  0.36490191  0.85854524  0.07270432    -0.78200
C84         C  0.31886548  0.86727560  0.07918607     1.02400
Cr85       Cr  0.28908545  0.75923753  0.06431947     1.93700
Cr86       Cr  0.39210774  0.70816506  0.07986790     1.93200
Cr87       Cr  0.39030637  0.80836349  0.04209896     1.39100
O88         O  0.35682209  0.75863999  0.06201608    -1.23300
O89         O  0.17304559  0.22372261  0.19443255    -0.85500
O90         O  0.25168591  0.22408800  0.23698115    -0.82600
C91         C  0.28815145  0.20792662  0.25375038     0.97900
O92         O  0.31849334  0.17427362  0.24260328    -0.82600
O93         O  0.26069689  0.08562268  0.23873596    -0.85200
C94         C  0.23006440  0.05277939  0.22799456     1.02500
O95         O  0.21180477  0.05709430  0.19971044    -0.78000
O96         O  0.15405916  0.14278559  0.20096064    -0.78200
C97         C  0.14310455  0.18907190  0.20472451     1.02400
O98         O  0.24784045  0.22563548  0.14249579    -0.85500
O99         O  0.32714643  0.23082264  0.18480501    -0.82600
C100        C  0.35899983  0.19876816  0.17336647     0.98000
O101        O  0.35281582  0.15178627  0.17738641    -0.82600
O102        O  0.30403795  0.06066955  0.17671322    -0.85200
C103        C  0.28482962  0.05606706  0.14856460     1.02400
O104        O  0.25288239  0.08850789  0.13864660    -0.78000
O105        O  0.18580483  0.17054080  0.13663705    -0.78200
C106        C  0.21135865  0.20819687  0.12629457     1.02400
Cr107      Cr  0.25030426  0.22096628  0.18968820     1.93700
Cr108      Cr  0.30535349  0.12095703  0.20764265     1.93200
Cr109      Cr  0.20475221  0.11768679  0.17027885     1.39100
O110        O  0.25340890  0.15340910  0.18928775    -1.23300
O111        O  0.31829447  0.29085784  0.44678241    -0.85500
O112        O  0.23975586  0.29722816  0.48950174    -0.82600
C113        C  0.20413045  0.30948325  0.00457690     0.97900
O114        O  0.17878945  0.35363532  0.49639793    -0.82600
O115        O  0.24474720  0.43591833  0.49072873    -0.85200
C116        C  0.27619319  0.46737924  0.47919046     1.02500
O117        O  0.29408938  0.46086595  0.45085213    -0.78000
O118        O  0.34373793  0.37024478  0.45217778    -0.78200
C119        C  0.35060258  0.32349478  0.45693664     1.02400
O120        O  0.24110054  0.29577119  0.39514275    -0.85500
O121        O  0.16328695  0.29751039  0.43830264    -0.82600
C122        C  0.13264014  0.33205678  0.42843885     0.98000
O123        O  0.14353691  0.37830055  0.43191618    -0.82600
O124        O  0.20164101  0.46347765  0.42934807    -0.85200
C125        C  0.22004945  0.46598252  0.40087018     1.02400
O126        O  0.24889701  0.43111688  0.39054305    -0.78000
O127        O  0.30849864  0.34326338  0.38804923    -0.78200
C128        C  0.27829374  0.30892117  0.37790479     1.02400
Cr129      Cr  0.24089544  0.30036958  0.44234939     1.93700
Cr130      Cr  0.19568640  0.40470470  0.46080972     1.93200
Cr131      Cr  0.29507496  0.39869669  0.42175477     1.39100
O132        O  0.24383056  0.36770686  0.44174349    -1.23300
O133        O  0.77972646  0.25580843  0.35698225    -0.85500
O134        O  0.78119267  0.33765581  0.31642072    -0.82600
C135        C  0.81467339  0.36802217  0.32770335     0.97900
O136        O  0.86153313  0.35934884  0.32440714    -0.82600
O137        O  0.94981330  0.30685621  0.32607869    -0.85200
C138        C  0.95117858  0.28818571  0.35448359     1.02500
O139        O  0.91848361  0.25595610  0.36335942    -0.78000
O140        O  0.83380349  0.19295132  0.36382324    -0.78200
C141        C  0.79596054  0.21917659  0.37361278     1.02400
O142        O  0.78252560  0.18408671  0.30325229    -0.85500
O143        O  0.78671343  0.26575347  0.26279617    -0.82600
C144        C  0.80272195  0.30403387  0.24773783     0.98000
O145        O  0.83956701  0.32991620  0.25902578    -0.82600
O146        O  0.92492527  0.26619549  0.26321849    -0.85200
C147        C  0.95651222  0.23395547  0.27380314     1.02400
O148        O  0.95131125  0.21533793  0.30202939    -0.78000
O149        O  0.86344055  0.16185822  0.29959298    -0.78200
C150        C  0.81711939  0.15268639  0.29439504     1.02400
Cr151      Cr  0.78779891  0.26083127  0.30996148     1.93700
Cr152      Cr  0.89103288  0.31164637  0.29425127     1.93200
Cr153      Cr  0.88891183  0.21040386  0.33086062     1.39100
O154        O  0.85559732  0.26095328  0.31170247    -1.23300
O155        O  0.71656674  0.27228186  0.11107780    -0.85500
O156        O  0.71964879  0.18943566  0.07134147    -0.82600
C157        C  0.68564676  0.15807935  0.08100515     0.97900
O158        O  0.63907383  0.16629562  0.07583519    -0.82600
O159        O  0.55032151  0.21954434  0.07548267    -0.85200
C160        C  0.54529299  0.23940122  0.10338452     1.02500
O161        O  0.57806789  0.27063436  0.11347655    -0.78000
O162        O  0.66212997  0.33535844  0.11543603    -0.78200
C163        C  0.69925465  0.30961296  0.12654449     1.02400
O164        O  0.71766880  0.34294225  0.05644037    -0.85500
O165        O  0.71866710  0.26056646  0.01686690    -0.82600
C166        C  0.69708363  0.21733542  0.49735005     0.98000
O167        O  0.66425712  0.19809264  0.01073071    -0.82600
O168        O  0.57796788  0.26002140  0.01331546    -0.85200
C169        C  0.54458528  0.29074782  0.02352039     1.02400
O170        O  0.54893558  0.31031916  0.05147404    -0.78000
O171        O  0.63680595  0.36435974  0.05036845    -0.78200
C172        C  0.68337767  0.37331060  0.04580189     1.02400
Cr173      Cr  0.71276269  0.26620938  0.06391847     1.93700
Cr174      Cr  0.61097869  0.21484092  0.04512896     1.93200
Cr175      Cr  0.60960229  0.31625164  0.08144306     1.39100
O176        O  0.64480127  0.26572073  0.06345892    -1.23300
C177        C  0.79772492  0.19766090  0.43273770    -0.21500
C178        C  0.76953967  0.20777810  0.40459590    -0.09500
C179        C  0.71585639  0.21295819  0.40701052     0.29300
C180        C  0.69145816  0.21128717  0.43724702    -0.21500
C181        C  0.72022980  0.20544226  0.46556833    -0.09500
C182        C  0.77341856  0.19719400  0.46305012     0.29300
F183        F  0.80217241  0.19110620  0.49011924    -0.20100
H184        H  0.83895672  0.19358642  0.43149924     0.17700
H185        H  0.65059325  0.21809399  0.43869987     0.17700
F186        F  0.68717931  0.22163166  0.38018227    -0.20000
C187        C  0.80287070  0.32856695  0.18890543    -0.21500
C188        C  0.77579279  0.31826448  0.21749022    -0.09500
C189        C  0.72191801  0.31468460  0.21620259     0.29300
C190        C  0.69618078  0.31700658  0.18654286    -0.21500
C191        C  0.72376219  0.32225478  0.15768584    -0.09500
C192        C  0.77709885  0.33004488  0.15911825     0.29300
F193        F  0.80451950  0.33633271  0.13146122    -0.20100
H194        H  0.84419973  0.33171332  0.18932861     0.17700
H195        H  0.65519843  0.31081414  0.18593489     0.17700
F196        F  0.69436779  0.30629634  0.24359269    -0.20000
C197        C  0.46932452  0.34473256  0.01072966    -0.21500
C198        C  0.49754965  0.30033020  0.00464942    -0.09500
C199        C  0.47713838  0.26150204  0.47931536     0.29300
C200        C  0.42939396  0.26935828  0.46445721    -0.21500
C201        C  0.39741351  0.30920420  0.47473713    -0.09500
C202        C  0.42225653  0.35276337  0.99587366     0.29300
F203        F  0.39624643  0.39628248  0.00301537    -0.20100
H204        H  0.48355858  0.37330280  0.02734993     0.17700
H205        H  0.41815359  0.24542873  0.44434782     0.17700
F206        F  0.50722326  0.22268700  0.46867357    -0.20000
C207        C  0.05487355  0.36000897  0.39814073    -0.21500
C208        C  0.08355838  0.31990507  0.41214006    -0.09500
C209        C  0.06566360  0.26962684  0.40887249     0.29300
C210        C  0.02103036  0.25992588  0.39121015    -0.21500
C211        C  0.99419155  0.29992114  0.37608009    -0.09500
C212        C  0.01094847  0.35013922  0.38007892     0.29300
F213        F  0.98483911  0.38960169  0.36653220    -0.20100
H214        H  0.06713244  0.39929450  0.40036743     0.17700
H215        H  0.00851735  0.22083252  0.38822746     0.17700
F216        F  0.09164644  0.22982894  0.42204682    -0.20000
C217        C  0.43757864  0.25211253  0.16529591    -0.21500
C218        C  0.40417253  0.21407829  0.15452860    -0.09500
C219        C  0.41717979  0.18519658  0.12704604     0.29300
C220        C  0.46348398  0.19303169  0.11121587    -0.21500
C221        C  0.49803150  0.22992111  0.12227214    -0.09500
C222        C  0.48438466  0.26004282  0.14935712     0.29300
F223        F  0.51587193  0.29728056  0.16035106    -0.20100
H224        H  0.42823899  0.27439610  0.18657215     0.17700
H225        H  0.47218714  0.17003035  0.09014113     0.17700
F226        F  0.38490816  0.14895817  0.11551985    -0.20000
C227        C  0.02483996  0.25911201  0.23475668    -0.21500
C228        C  0.00229879  0.22156132  0.25451737    -0.09500
C229        C  0.02591977  0.17370168  0.25734665     0.29300
C230        C  0.07127088  0.16368827  0.24072291    -0.21500
C231        C  0.09457409  0.20141536  0.22139889    -0.09500
C232        C  0.07093846  0.24941956  0.21855452     0.29300
F233        F  0.09207040  0.28676969  0.20011150    -0.20100
H234        H  0.00748506  0.29655117  0.23260411     0.17700
H235        H  0.08865370  0.12635501  0.24346918     0.17700
F236        F  0.00504985  0.13648197  0.27603732    -0.20000
C237        C  0.19321436  0.20548410  0.06709794    -0.21500
C238        C  0.19840547  0.23373367  0.09562587    -0.09500
C239        C  0.19716839  0.28743312  0.09413336     0.29300
C240        C  0.19392410  0.31246285  0.06429588    -0.21500
C241        C  0.19311142  0.28424269  0.03561003    -0.09500
C242        C  0.19132674  0.23052375  0.03718087     0.29300
F243        F  0.19048819  0.20231721  0.00964184    -0.20100
H244        H  0.19423466  0.16416109  0.06781075     0.17700
H245        H  0.19590498  0.35373658  0.06348457     0.17700
F246        F  0.20134207  0.31564467  0.12152488    -0.20000
C247        C  0.25835462  0.23634762  0.34087814    -0.21500
C248        C  0.28599445  0.28166117  0.34652919    -0.09500
C249        C  0.31838452  0.29995166  0.32180532     0.29300
C250        C  0.32189034  0.27384342  0.29207757    -0.21500
C251        C  0.29358636  0.22904287  0.28667589    -0.09500
C252        C  0.26174626  0.21066718  0.31134689     0.29300
F253        F  0.23191803  0.16907464  0.30628888    -0.20100
H254        H  0.23290253  0.22107416  0.35918458     0.17700
H255        H  0.34504758  0.28972649  0.27278461     0.17700
F256        F  0.34459068  0.34415516  0.32567872    -0.20000
C257        C  0.26913096  0.94822283  0.08754340    -0.21500
C258        C  0.30793709  0.91466379  0.09724629    -0.09500
C259        C  0.34065250  0.92903394  0.12274133     0.29300
C260        C  0.33390334  0.97559982  0.13858489    -0.21500
C261        C  0.29506593  0.00947628  0.12907024    -0.09500
C262        C  0.26298732  0.99550381  0.10298555     0.29300
F263        F  0.22499490  0.02695239  0.09270637    -0.20100
H264        H  0.24438602  0.93836971  0.06749722     0.17700
H265        H  0.35895960  0.98492943  0.15858028     0.17700
F266        F  0.37891870  0.89752798  0.13267659    -0.20000
C267        C  0.25170127  0.52573849  0.02533233    -0.21500
C268        C  0.28734851  0.51495202  0.49704302    -0.09500
C269        C  0.32988089  0.54484051  0.48872284     0.29300
C270        C  0.33292131  0.58702474  0.00525766    -0.21500
C271        C  0.30147957  0.60341844  0.03082110    -0.09500
C272        C  0.26089272  0.57228931  0.04105204     0.29300
F273        F  0.23129488  0.58606038  0.06663448    -0.20100
H274        H  0.21976825  0.50251255  0.03318669     0.17700
H275        H  0.36485577  0.61014709  0.99719797     0.17700
F276        F  0.36436184  0.52866748  0.46632072    -0.20000
C277        C  0.25421061  0.98760075  0.26964272    -0.21500
C278        C  0.21888066  0.00641258  0.24679888    -0.09500
C279        C  0.17498644  0.97784125  0.23974333     0.29300
C280        C  0.16664202  0.93154769  0.25513759    -0.21500
C281        C  0.20172948  0.91242228  0.27788216    -0.09500
C282        C  0.24591085  0.94058851  0.28499491     0.29300
F283        F  0.28017839  0.92342995  0.30715828    -0.20100
H284        H  0.28870202  0.00871705  0.27506874     0.17700
H285        H  0.13229476  0.91048968  0.24918503     0.17700
F286        F  0.13978610  0.99466268  0.21803327    -0.20000
C287        C  0.28135921  0.81085321  0.40822197    -0.21500
C288        C  0.22751834  0.81174878  0.40635474    -0.09500
C289        C  0.19909261  0.81733101  0.43498804     0.30900
C290        C  0.22414557  0.81819042  0.46501909    -0.21500
C291        C  0.27793493  0.81505120  0.46696198    -0.09500
C292        C  0.30645825  0.81322221  0.43816990     0.29300
F293        F  0.35825823  0.80934887  0.43908501    -0.20100
H294        H  0.30400721  0.80638922  0.38641023     0.17700
H295        H  0.20138349  0.81929668  0.48695290     0.17700
F296        F  0.14715361  0.81772474  0.43414102    -0.20000
C297        C  0.22752783  0.69967386  0.15955535    -0.21500
C298        C  0.28107666  0.70483290  0.15803406    -0.09500
C299        C  0.30927989  0.70605918  0.18682496     0.29300
C300        C  0.28371184  0.70659168  0.21663934    -0.21500
C301        C  0.22987050  0.70453581  0.21814791    -0.09500
C302        C  0.20203619  0.69871834  0.18941052     0.29300
F303        F  0.15013117  0.69681256  0.19002512    -0.20100
H304        H  0.20524674  0.69880498  0.13747238     0.17700
H305        H  0.30585362  0.71096895  0.23860373     0.17700
F306        F  0.36096082  0.71129136  0.18606455    -0.20000
C307        C  0.23674753  0.57013442  0.33755295    -0.21500
C308        C  0.20079267  0.60589111  0.34842369    -0.09500
C309        C  0.17148742  0.59540686  0.37618403     0.29300
C310        C  0.17721200  0.54937121  0.39246010    -0.21500
C311        C  0.21219932  0.51265323  0.38143950    -0.09500
C312        C  0.24243176  0.52356012  0.35385360     0.29300
F313        F  0.27772533  0.48969430  0.34277651    -0.20100
H314        H  0.25912841  0.57757692  0.31596051     0.17700
H315        H  0.15414489  0.54259542  0.41385029     0.17700
F316        F  0.13700342  0.62993007  0.38754782    -0.20000
C317        C  0.52880746  0.67608253  0.00685356    -0.21500
C318        C  0.50054467  0.72050339  0.00082077    -0.09500
C319        C  0.52180410  0.75760914  0.47799953     0.29300
C320        C  0.56848082  0.74919690  0.46208839    -0.21500
C321        C  0.59857374  0.70677480  0.47006498    -0.09500
C322        C  0.58205449  0.67342473  0.49475436     0.29300
F323        F  0.60142570  0.62412022  0.99814211    -0.20100
H324        H  0.51546873  0.64823065  0.02433502     0.17700
H325        H  0.58053275  0.77510581  0.44310654     0.17700
F326        F  0.49389079  0.79948805  0.47000834    -0.20000
C327        C  0.93707143  0.66348359  0.38924719    -0.21500
C328        C  0.91106977  0.70347187  0.40525957    -0.09500
C329        C  0.93264925  0.75248263  0.40506103     0.29300
C330        C  0.97900930  0.76104966  0.38884355    -0.21500
C331        C  0.00379026  0.72114766  0.37219349    -0.09500
C332        C  0.98266300  0.67222738  0.37273846     0.29300
F333        F  0.00615289  0.63280647  0.35736220    -0.20100
H334        H  0.92167184  0.62516618  0.38891991     0.17700
H335        H  0.99468116  0.79925589  0.38834275     0.17700
F336        F  0.90914302  0.79193446  0.42032996    -0.20000
C337        C  0.75908041  0.49644210  0.35032018    -0.21500
C338        C  0.79002800  0.50889277  0.37711497    -0.09500
C339        C  0.82695443  0.47362113  0.38772797     0.29300
C340        C  0.83234599  0.42708607  0.37212550    -0.21500
C341        C  0.80148679  0.41449082  0.34555214    -0.09500
C342        C  0.76468605  0.44939953  0.33460064     0.29300
F343        F  0.73581824  0.43894638  0.30816651    -0.20100
H344        H  0.73007543  0.52279859  0.34180110     0.17700
H345        H  0.86150203  0.40079970  0.38063096     0.17700
F346        F  0.85812833  0.48389234  0.41314792    -0.20000
C347        C  0.67001560  0.48773031  0.99068944    -0.21500
C348        C  0.71115066  0.50845824  0.49338504    -0.09500
C349        C  0.74486017  0.49080320  0.51761340     0.29300
C350        C  0.74355068  0.44463621  0.03182173    -0.21500
C351        C  0.69611348  0.42049313  0.02794354    -0.09500
C352        C  0.65930335  0.44273463  0.00721332     0.29300
F353        F  0.61306592  0.42050795  0.00219816    -0.20100
H354        H  0.64137252  0.50352181  0.97459063     0.17700
H355        H  0.77229750  0.42837885  0.04762934     0.17700
F356        F  0.78674852  0.51815864  0.52615711    -0.20000
C357        C  0.51808709  0.76539379  0.14459931    -0.21500
C358        C  0.50361230  0.79732841  0.11866065    -0.09500
C359        C  0.53599667  0.83761239  0.10958449     0.29300
C360        C  0.58134128  0.84591635  0.12630416    -0.21500
C361        C  0.59582989  0.81415422  0.15215473    -0.09500
C362        C  0.56409535  0.77345631  0.16112822     0.29300
F363        F  0.57664638  0.74271356  0.18636890    -0.20100
H364        H  0.49411367  0.73366844  0.15183521     0.17700
H365        H  0.60539789  0.87756589  0.11897643     0.17700
F366        F  0.52391316  0.86927225  0.08468663    -0.20000
C367        C  0.93631812  0.77051204  0.21196993    -0.21500
C368        C  0.90536571  0.81181633  0.22121386    -0.09500
C369        C  0.92227853  0.84424610  0.24615142     0.29300
C370        C  0.96888595  0.83549416  0.26152503    -0.21500
C371        C  0.00031954  0.79451239  0.25240859    -0.09500
C372        C  0.98370090  0.76204567  0.22720915     0.29300
F373        F  0.01256519  0.72162716  0.21767471    -0.20100
H374        H  0.92437992  0.74557029  0.19253091     0.17700
H375        H  0.98020631  0.86087911  0.28088732     0.17700
F376        F  0.89322101  0.88435579  0.25608315    -0.20000
C377        C  0.83580203  0.77124364  0.07769190    -0.21500
C378        C  0.78991743  0.79078581  0.09071881    -0.09500
C379        C  0.74402261  0.78298342  0.07387028     0.29300
C380        C  0.74366154  0.75576609  0.04512066    -0.21500
C381        C  0.78895810  0.73557173  0.03179779    -0.09500
C382        C  0.83541899  0.74359217  0.04834419     0.29300
F383        F  0.88010385  0.72554112  0.03605347    -0.20100
H384        H  0.87146416  0.77604982  0.09066796     0.17700
H385        H  0.70714758  0.75056640  0.03314214     0.17700
F386        F  0.69894466  0.80150216  0.08546809    -0.20000
C387        C  0.71161863  0.81664371  0.31037037    -0.21500
C388        C  0.69581313  0.79093438  0.28257071    -0.09500
C389        C  0.67944555  0.73990142  0.28505918     0.29300
C390        C  0.68176896  0.71417394  0.31486854    -0.21500
C391        C  0.70164016  0.73883689  0.34221798    -0.09500
C392        C  0.71471066  0.79095763  0.33992012     0.29300
F393        F  0.73250002  0.81668432  0.36606877    -0.20100
H394        H  0.72485922  0.85572818  0.30876401     0.17700
H395        H  0.67117826  0.67427821  0.31608645     0.17700
F396        F  0.66382184  0.71430654  0.25831434    -0.20000
C397        C  0.74650013  0.03771912  0.26080267    -0.21500
C398        C  0.78716960  0.01041224  0.24662159    -0.09500
C399        C  0.83689080  0.02970603  0.24847473     0.29300
C400        C  0.84581387  0.07568541  0.26425332    -0.21500
C401        C  0.80521433  0.10391872  0.27807911    -0.09500
C402        C  0.75524296  0.08448159  0.27615177     0.29300
F403        F  0.71499216  0.11052591  0.28883585    -0.20100
H404        H  0.70764878  0.02364511  0.25898570     0.17700
H405        H  0.88483971  0.08947946  0.26520711     0.17700
F406        F  0.87685734  0.00398401  0.23511959    -0.20000
C407        C  0.74115317  0.08074457  0.09035830    -0.21500
C408        C  0.69832422  0.11046534  0.09852674    -0.09500
C409        C  0.66390601  0.09211636  0.12212996     0.29300
C410        C  0.67200179  0.04509973  0.13701858    -0.21500
C411        C  0.71436024  0.01484067  0.12876695    -0.09500
C412        C  0.74904122  0.03306135  0.10517677     0.29300
F413        F  0.79118417  0.00554592  0.09699890    -0.20100
H414        H  0.76779047  0.09388956  0.07206744     0.17700
H415        H  0.64505447  0.03250622  0.15530035     0.17700
F416        F  0.62242183  0.12005436  0.13120396    -0.20000
O417        O  0.67211731  0.79522360  0.68515679    -0.85500
O418        O  0.74935694  0.79394354  0.64237630    -0.82600
C419        C  0.78368726  0.80946827  0.62369725     0.97900
O420        O  0.81195672  0.84646696  0.63220185    -0.82600
O421        O  0.74924183  0.93197919  0.63593831    -0.85200
C422        C  0.72041830  0.96636705  0.64685283     1.02500
O423        O  0.70377441  0.96333518  0.67562369    -0.78000
O424        O  0.65055275  0.87524074  0.67648692    -0.78200
C425        C  0.64174913  0.82850526  0.67339996     1.02400
O426        O  0.74889822  0.80042076  0.73633768    -0.85500
O427        O  0.82720664  0.79486094  0.69332184    -0.82600
C428        C  0.85927703  0.82920422  0.70124585     0.98000
O429        O  0.85057225  0.87523202  0.69514320    -0.82600
O430        O  0.79661377  0.96274405  0.69619296    -0.85200
C431        C  0.77872866  0.96772696  0.72472585     1.02400
O432        O  0.74751858  0.93582641  0.73609217    -0.78000
O433        O  0.68325253  0.85167708  0.74084856    -0.78200
C434        C  0.71088883  0.81601401  0.75193368     1.02400
Cr435      Cr  0.74962737  0.80109283  0.68919654     1.93700
Cr436      Cr  0.79848549  0.90136346  0.66622427     1.93200
Cr437      Cr  0.69990110  0.90357503  0.70606853     1.39100
O438        O  0.74966037  0.86842740  0.68730623    -1.23300
O439        O  0.82456784  0.73424374  0.93161587    -0.85500
O440        O  0.74649114  0.72940533  0.88877880    -0.82600
C441        C  0.71060551  0.71171253  0.87223304     0.97900
O442        O  0.68546065  0.67326091  0.88196713    -0.82600
O443        O  0.75213728  0.59074915  0.88465926    -0.85200
C444        C  0.78324225  0.55810783  0.89532206     1.02500
O445        O  0.80252642  0.56377648  0.92334569    -0.78000
O446        O  0.85106144  0.65583477  0.92262333    -0.78200
C447        C  0.85668156  0.70307622  0.91955595     1.02400
O448        O  0.74758302  0.72424658  0.98251323    -0.85500
O449        O  0.67050117  0.72636027  0.93978094    -0.82600
C450        C  0.64143127  0.69140709  0.95051624     0.98000
O451        O  0.65255034  0.64535550  0.94627576    -0.82600
O452        O  0.71025075  0.56031605  0.94634395    -0.85200
C453        C  0.72888856  0.55707336  0.97467485     1.02400
O454        O  0.75982644  0.59014904  0.98483846    -0.78000
O455        O  0.81742780  0.67950133  0.98812608    -0.78200
C456        C  0.78911628  0.70745587  0.50015631     1.02400
Cr457      Cr  0.74781572  0.72366877  0.93566176     1.93700
Cr458      Cr  0.70357990  0.62030077  0.91594726     1.93200
Cr459      Cr  0.80421386  0.62498128  0.95345857     1.39100
O460        O  0.75185125  0.65641320  0.93488533    -1.23300
O461        O  0.21937286  0.75019875  0.76457645    -0.85500
O462        O  0.22063453  0.83262282  0.80431931    -0.82600
C463        C  0.18714885  0.86442771  0.79431264     0.97900
O464        O  0.14036752  0.85652353  0.79870195    -0.82600
O465        O  0.05132482  0.80541479  0.79740576    -0.85200
C466        C  0.04755030  0.78628092  0.76925749     1.02500
O467        O  0.07996872  0.75410158  0.75955614    -0.78000
O468        O  0.16384050  0.68874320  0.75829944    -0.78200
C469        C  0.20173210  0.71432370  0.74804262     1.02400
O470        O  0.21667315  0.67899773  0.81905137    -0.85500
O471        O  0.21667648  0.76143907  0.85894364    -0.82600
C472        C  0.19863942  0.79775577  0.87504155     0.98000
O473        O  0.16242779  0.82462532  0.86379048    -0.82600
O474        O  0.07699727  0.76283085  0.85975479    -0.85200
C475        C  0.04273916  0.73407406  0.84881561     1.02400
O476        O  0.04784953  0.71463242  0.82085761    -0.78000
O477        O  0.13519060  0.65858536  0.82323934    -0.78200
C478        C  0.18140216  0.64925392  0.82899995     1.02400
Cr479      Cr  0.21297109  0.75590303  0.81162901     1.93700
Cr480      Cr  0.11079515  0.80839258  0.82868579     1.93200
Cr481      Cr  0.10993592  0.70768309  0.79183463     1.39100
O482        O  0.14497866  0.75740104  0.81063836    -1.23300
O483        O  0.28287067  0.77189262  0.51653913    -0.85500
O484        O  0.28381433  0.68857940  0.55575811    -0.82600
C485        C  0.31708530  0.65731236  0.54467385     0.97900
O486        O  0.36406637  0.66500594  0.54847629    -0.82600
O487        O  0.45413166  0.71576908  0.54989373    -0.85200
C488        C  0.45833266  0.73407082  0.52158889     1.02500
O489        O  0.42497612  0.76450188  0.51118458    -0.78000
O490        O  0.34191062  0.82946721  0.50785033    -0.78200
C491        C  0.29739537  0.79786177  0.99952227     1.02400
O492        O  0.28766355  0.84209920  0.57121246    -0.85500
O493        O  0.28901942  0.75915357  0.61073914    -0.82600
C494        C  0.30443976  0.72044775  0.62563218     0.98000
O495        O  0.33997327  0.69333889  0.61377778    -0.82600
O496        O  0.42548105  0.75644277  0.61145348    -0.85200
C497        C  0.45824437  0.78778753  0.60125623     1.02400
O498        O  0.45448936  0.80654193  0.57293089    -0.78000
O499        O  0.36894502  0.86372602  0.57209426    -0.78200
C500        C  0.32315385  0.87304153  0.57903194     1.02400
Cr501      Cr  0.29121574  0.76533087  0.56345640     1.93700
Cr502      Cr  0.39288525  0.71168637  0.57965036     1.93200
Cr503      Cr  0.39443781  0.81228983  0.54236695     1.39100
O504        O  0.35907340  0.76336975  0.56180106    -1.23300
O505        O  0.17899907  0.23030571  0.69878743    -0.85500
O506        O  0.26050468  0.22765960  0.73929747    -0.82600
C507        C  0.29554271  0.20841150  0.75594341     0.97900
O508        O  0.32162322  0.17118326  0.74543986    -0.82600
O509        O  0.25832598  0.08721358  0.74070509    -0.85200
C510        C  0.22747327  0.05510664  0.72950610     1.02500
O511        O  0.20921010  0.06086077  0.70131028    -0.78000
O512        O  0.15631159  0.14977287  0.70348918    -0.78200
C513        C  0.14764324  0.19626082  0.70837260     1.02400
O514        O  0.25136878  0.23055596  0.64505829    -0.85500
O515        O  0.33327811  0.22933483  0.68577050    -0.82600
C516        C  0.36431099  0.19489540  0.67623307     0.98000
O517        O  0.35547801  0.14860864  0.68113875    -0.82600
O518        O  0.30169210  0.06142178  0.67861610    -0.85200
C519        C  0.28310582  0.05873591  0.65025212     1.02400
O520        O  0.25162091  0.09186593  0.64055452    -0.78000
O521        O  0.18788383  0.17725621  0.63928022    -0.78200
C522        C  0.21393641  0.21470233  0.62909993     1.02400
Cr523      Cr  0.25612136  0.22402558  0.69219461     1.93700
Cr524      Cr  0.30537384  0.12031331  0.71019652     1.93200
Cr525      Cr  0.20516004  0.12290113  0.67248369     1.39100
O526        O  0.25569308  0.15613350  0.69159687    -1.23300
O527        O  0.32300916  0.29263799  0.94782161    -0.85500
O528        O  0.24178929  0.29353037  0.98878906    -0.82600
C529        C  0.20480923  0.31593888  0.50658080     0.97900
O530        O  0.17662140  0.34559769  0.99375928    -0.82600
O531        O  0.23811897  0.43217185  0.99067677    -0.85200
C532        C  0.26980645  0.46427826  0.98002604     1.02500
O533        O  0.28757261  0.45988365  0.95152807    -0.78000
O534        O  0.34329205  0.37358070  0.95265678    -0.78200
C535        C  0.35335114  0.32743162  0.95752098     1.02400
O536        O  0.24891624  0.29209465  0.89483485    -0.85500
O537        O  0.16851463  0.28927972  0.93588900    -0.82600
C538        C  0.13764289  0.32243082  0.92457069     0.98000
O539        O  0.14507973  0.36921814  0.92869282    -0.82600
O540        O  0.19640533  0.45875201  0.92851159    -0.85200
C541        C  0.21531879  0.46236543  0.90021249     1.02400
O542        O  0.24616901  0.42892393  0.89027155    -0.78000
O543        O  0.31204670  0.34552509  0.88854979    -0.78200
C544        C  0.28581223  0.30822327  0.87845827     1.02400
Cr545      Cr  0.24551465  0.29700774  0.94180814     1.93700
Cr546      Cr  0.19275029  0.39851738  0.95926718     1.93200
Cr547      Cr  0.29352002  0.39911231  0.92199684     1.39100
O548        O  0.24405075  0.36457482  0.94120882    -1.23300
O549        O  0.77974600  0.25665604  0.85803226    -0.85500
O550        O  0.77900161  0.33742267  0.81652461    -0.82600
C551        C  0.81208624  0.36960596  0.82616097     0.97900
O552        O  0.85910401  0.36222089  0.82209054    -0.82600
O553        O  0.94844153  0.30898087  0.82406714    -0.85200
C554        C  0.95229489  0.29038464  0.85241005     1.02500
O555        O  0.91869603  0.26017007  0.86275604    -0.78000
O556        O  0.83552191  0.19536401  0.86513107    -0.78200
C557        C  0.79790758  0.22153039  0.87517470     1.02400
O558        O  0.78282874  0.18373149  0.80458469    -0.85500
O559        O  0.78405233  0.26385669  0.76349912    -0.82600
C560        C  0.79997299  0.30063702  0.74696852     0.98000
O561        O  0.83672588  0.32765008  0.75734823    -0.82600
O562        O  0.92348859  0.26545167  0.76253757    -0.85200
C563        C  0.95631903  0.23502837  0.77387629     1.02400
O564        O  0.95101463  0.21714862  0.80224058    -0.78000
O565        O  0.86399780  0.16236344  0.80099491    -0.78200
C566        C  0.81784034  0.15314378  0.79523983     1.02400
Cr567      Cr  0.78674356  0.26057943  0.81074605     1.93700
Cr568      Cr  0.88891410  0.31224675  0.79280694     1.93200
Cr569      Cr  0.88918101  0.21255850  0.83138368     1.39100
O570        O  0.85459369  0.26188863  0.81168803    -1.23300
O571        O  0.71824321  0.26745087  0.60718372    -0.85500
O572        O  0.71962444  0.18465469  0.56737687    -0.82600
C573        C  0.68637436  0.15413476  0.57873924     0.97900
O574        O  0.63945964  0.16190938  0.57499183    -0.82600
O575        O  0.55101035  0.21421808  0.57627932    -0.85200
C576        C  0.54859106  0.23443202  0.60420407     1.02500
O577        O  0.58112661  0.26699815  0.61264752    -0.78000
O578        O  0.66458622  0.33121185  0.61163959    -0.78200
C579        C  0.70102280  0.30459742  0.62291391     1.02400
O580        O  0.71642779  0.33735881  0.55236717    -0.85500
O581        O  0.71519584  0.25420663  0.51283992    -0.82600
C582        C  0.70161039  0.22437214  0.00036301     0.98000
O583        O  0.66050239  0.19126576  0.50893264    -0.82600
O584        O  0.57407126  0.25278316  0.51262549    -0.85200
C585        C  0.54121743  0.28378379  0.52317658     1.02400
O586        O  0.54730418  0.30403016  0.55082843    -0.78000
O587        O  0.63526472  0.35796276  0.54646222    -0.78200
C588        C  0.68173643  0.36713503  0.54170315     1.02400
Cr589      Cr  0.71211962  0.26090320  0.56000971     1.93700
Cr590      Cr  0.60930615  0.20887058  0.54428594     1.93200
Cr591      Cr  0.61003705  0.31128743  0.57907066     1.39100
O592        O  0.64416020  0.26029466  0.56101699    -1.23300
C593        C  0.80399362  0.21715598  0.93532476    -0.21500
C594        C  0.77450417  0.21197266  0.90726521    -0.09500
C595        C  0.72127268  0.20464123  0.91030703     0.29300
C596        C  0.69778836  0.20471332  0.94092644    -0.21500
C597        C  0.72684408  0.21364867  0.96885792    -0.09500
C598        C  0.78044945  0.21864261  0.96581559     0.29300
F599        F  0.80995496  0.22675227  0.99232463    -0.20100
H600        H  0.84490970  0.22323818  0.93349690     0.17700
H601        H  0.65658118  0.20100419  0.94261801     0.17700
F602        F  0.69181024  0.19907798  0.88352970    -0.20000
C603        C  0.80015539  0.32762496  0.68816974    -0.21500
C604        C  0.77334094  0.31147342  0.71583883    -0.09500
C605        C  0.72054648  0.30070118  0.71295004     0.29300
C606        C  0.69612404  0.30303743  0.68286485    -0.21500
C607        C  0.72373946  0.31541102  0.65492757    -0.09500
C608        C  0.77572827  0.32892431  0.65783029     0.29300
F609        F  0.80329965  0.34134045  0.63108977    -0.20100
H610        H  0.84061183  0.33621721  0.68967647     0.17700
H611        H  0.65628093  0.29197889  0.68108945     0.17700
F612        F  0.69274173  0.28604994  0.73914834    -0.20000
C613        C  0.46033291  0.33235700  0.51545686    -0.21500
C614        C  0.49311381  0.29323557  0.50504516    -0.09500
C615        C  0.47742806  0.26346694  0.98329447     0.29300
C616        C  0.42970667  0.27129190  0.96850335    -0.21500
C617        C  0.40184910  0.31611316  0.97449522    -0.09500
C618        C  0.41329400  0.34041330  0.50053513     0.29300
F619        F  0.38308652  0.37904783  0.51141891    -0.20100
H620        H  0.47106143  0.35701860  0.53532633     0.17700
H621        H  0.41490015  0.24274297  0.95209059     0.17700
F622        F  0.50289255  0.21917273  0.97758423    -0.20000
C623        C  0.08273674  0.33789676  0.87749847    -0.21500
C624        C  0.09247749  0.30882703  0.90537296    -0.09500
C625        C  0.05582086  0.27369365  0.91611921     0.29300
C626        C  0.00941924  0.26889456  0.89936640    -0.21500
C627        C  0.99933460  0.29877127  0.87159773    -0.09500
C628        C  0.03697111  0.33299553  0.86069354     0.29300
F629        F  0.02971494  0.36215311  0.83390103    -0.20100
H630        H  0.11061271  0.36542883  0.86897814     0.17700
H631        H  0.98151336  0.24158589  0.90804337     0.17700
F632        F  0.06383545  0.24588808  0.94339138    -0.20000
C633        C  0.44036452  0.25063127  0.66480291    -0.21500
C634        C  0.41183653  0.20655349  0.65855648    -0.09500
C635        C  0.43044659  0.17071582  0.63592748     0.29300
C636        C  0.47599287  0.17930144  0.61952166    -0.21500
C637        C  0.50438365  0.22348182  0.62525202    -0.09500
C638        C  0.48671881  0.25895991  0.64848238     0.29300
F639        F  0.51310759  0.30243586  0.65459075    -0.20100
H640        H  0.42706355  0.27820981  0.68243615     0.17700
H641        H  0.48861629  0.15156214  0.60177656     0.17700
F642        F  0.40385511  0.12765344  0.62888972    -0.20000
C643        C  0.02364143  0.26079621  0.73390077    -0.21500
C644        C  0.00392882  0.22444652  0.75575631    -0.09500
C645        C  0.03270129  0.18038940  0.76244477     0.29300
C646        C  0.07970459  0.17268573  0.74730533    -0.21500
C647        C  0.09959699  0.20883321  0.72546467    -0.09500
C648        C  0.07139925  0.25335429  0.71903990     0.29300
F649        F  0.08922401  0.28882846  0.69791060    -0.20100
H650        H  0.00255512  0.29553942  0.72885751     0.17700
H651        H  0.10076488  0.13804425  0.75275068     0.17700
F652        F  0.01531227  0.14442865  0.78343040    -0.20000
C653        C  0.19571930  0.21276361  0.56994626    -0.21500
C654        C  0.20103140  0.24092941  0.59847277    -0.09500
C655        C  0.19951324  0.29471362  0.59687387     0.29300
C656        C  0.19585603  0.31970881  0.56689013    -0.21500
C657        C  0.19488538  0.29135515  0.53817227    -0.09500
C658        C  0.19332828  0.23765409  0.54000812     0.29300
F659        F  0.19209383  0.20918510  0.51259482    -0.20100
H660        H  0.19684459  0.17144587  0.57065949     0.17700
H661        H  0.19741738  0.36099377  0.56599491     0.17700
F662        F  0.20333184  0.32301578  0.62425406    -0.20000
C663        C  0.28473094  0.22933197  0.84527196    -0.21500
C664        C  0.29788838  0.28126403  0.84796034    -0.09500
C665        C  0.31757668  0.30674747  0.82074084     0.29300
C666        C  0.32021843  0.28148404  0.79087307    -0.21500
C667        C  0.30471104  0.23030652  0.78809189    -0.09500
C668        C  0.28820297  0.20400965  0.81566206     0.29300
F669        F  0.27128872  0.15520368  0.81338302    -0.20100
H670        H  0.26972344  0.20873417  0.86595181     0.17700
H671        H  0.33211743  0.30249314  0.76956303     0.17700
F672        F  0.33046025  0.35682019  0.82238846    -0.20000
C673        C  0.26487713  0.94557504  0.59434148    -0.21500
C674        C  0.31259015  0.92127385  0.59658532    -0.09500
C675        C  0.35135509  0.94410512  0.61553662     0.29300
C676        C  0.34188335  0.98940770  0.63226186    -0.21500
C677        C  0.29425810  0.01368084  0.62997043    -0.09500
C678        C  0.25584757  0.99164844  0.61058817     0.29300
F679        F  0.20878811  0.01342603  0.60850561    -0.20100
H680        H  0.23462546  0.92902454  0.57988518     0.17700
H681        H  0.37181482  0.00543567  0.64724294     0.17700
F682        F  0.39818032  0.92200344  0.61872601    -0.20000
C683        C  0.25269868  0.53339351  0.52055946    -0.21500
C684        C  0.28275270  0.51003219  0.99919293    -0.09500
C685        C  0.32387349  0.54108110  0.98961584     0.29300
C686        C  0.33768490  0.59169830  0.50372693    -0.21500
C687        C  0.30329485  0.61021425  0.52723865    -0.09500
C688        C  0.26037514  0.58085557  0.53543629     0.29300
F689        F  0.22699196  0.59711518  0.55844277    -0.20100
H690        H  0.21915273  0.51143100  0.52706537     0.17700
H691        H  0.37122983  0.61358771  0.49703519     0.17700
F692        F  0.35553700  0.52729392  0.96501409    -0.20000
C693        C  0.25546420  0.98489133  0.76652058    -0.21500
C694        C  0.21693309  0.00783089  0.74755896    -0.09500
C695        C  0.17024882  0.98263068  0.74347019     0.29300
C696        C  0.16207380  0.93567969  0.75825449    -0.21500
C697        C  0.20026838  0.91240257  0.77736321    -0.09500
C698        C  0.24745307  0.93717801  0.78111413     0.29300
F699        F  0.28526122  0.91594968  0.79917974    -0.20100
H700        H  0.29220743  0.00335228  0.76937180     0.17700
H701        H  0.12534141  0.91746906  0.75469031     0.17700
F702        F  0.13217796  0.00362251  0.72545281    -0.20000
C703        C  0.27229791  0.82317626  0.91004406    -0.21500
C704        C  0.22085711  0.80792837  0.90728003    -0.09500
C705        C  0.19385443  0.79445192  0.93532446     0.30900
C706        C  0.21866910  0.79365315  0.96533853    -0.21500
C707        C  0.27078776  0.80690683  0.96815134    -0.09500
C708        C  0.29694724  0.82352666  0.94028475     0.29300
F709        F  0.34709700  0.83666437  0.94184286    -0.20100
H710        H  0.29390377  0.83307537  0.88853872     0.17700
H711        H  0.19739519  0.78094851  0.98637631     0.17700
F712        F  0.14455207  0.77849865  0.93335730    -0.20000
C713        C  0.22501868  0.70615065  0.65789680    -0.21500
C714        C  0.27887892  0.70714297  0.65652277    -0.09500
C715        C  0.30671187  0.70267098  0.68538908     0.29300
C716        C  0.28091322  0.70150746  0.71520033    -0.21500
C717        C  0.22703600  0.70328842  0.71667738    -0.09500
C718        C  0.19920274  0.70349311  0.68766429     0.29300
F719        F  0.14729873  0.70581322  0.68815542    -0.20100
H720        H  0.20288505  0.70965801  0.63585304     0.17700
H721        H  0.30310717  0.70163765  0.73732407     0.17700
F722        F  0.35865134  0.70397207  0.68495559    -0.20000
C723        C  0.23257460  0.56970859  0.83898227    -0.21500
C724        C  0.19239942  0.60243932  0.84762381    -0.09500
C725        C  0.15910480  0.58811893  0.87292710     0.29300
C726        C  0.16600361  0.54200264  0.88923231    -0.21500
C727        C  0.20580361  0.50873959  0.88052481    -0.09500
C728        C  0.23910630  0.52298707  0.85505976     0.29300
F729        F  0.27870776  0.49246418  0.84611700    -0.20100
H730        H  0.25816350  0.57978583  0.81933713     0.17700
H731        H  0.14024020  0.53249226  0.90890531     0.17700
F732        F  0.12013801  0.61924056  0.88227454    -0.20000
C733        C  0.53591362  0.68199802  0.51071652    -0.21500
C734        C  0.50500966  0.72373953  0.50243315    -0.09500
C735        C  0.51969236  0.75673173  0.97860952     0.29300
C736        C  0.56616726  0.74795057  0.96255069    -0.21500
C737        C  0.59377741  0.70289869  0.96824003    -0.09500
C738        C  0.57481797  0.66721271  0.99082919     0.29300
F739        F  0.61092242  0.63261727  0.50377283    -0.20100
H740        H  0.52443628  0.65589249  0.52974157     0.17700
H741        H  0.58030947  0.77606122  0.94550918     0.17700
F742        F  0.49464005  0.80141210  0.97335821    -0.20000
C743        C  0.90454357  0.70416743  0.86859918    -0.21500
C744        C  0.90106151  0.72000063  0.90088850    -0.09500
C745        C  0.94376186  0.74152409  0.91601818     0.29300
C746        C  0.99008413  0.74561209  0.89909209    -0.21500
C747        C  0.99423424  0.72806221  0.86694399    -0.09500
C748        C  0.95041174  0.70844548  0.85159855     0.29300
F749        F  0.95156407  0.69330136  0.82018969    -0.20100
H750        H  0.87187310  0.68686389  0.85683437     0.17700
H751        H  0.02291094  0.76167724  0.91132199     0.17700
F752        F  0.94145028  0.75581438  0.94754852    -0.20000
C753        C  0.77903003  0.50710973  0.84386622    -0.21500
C754        C  0.79136504  0.51005099  0.87702155    -0.09500
C755        C  0.80629738  0.46513287  0.89327462     0.29300
C756        C  0.80950647  0.41892486  0.87663731    -0.21500
C757        C  0.79760719  0.41616275  0.84365082    -0.09500
C758        C  0.78264622  0.46060703  0.82718192     0.29300
F759        F  0.77356324  0.45939830  0.79485504    -0.20100
H760        H  0.76706384  0.54094048  0.83079483     0.17700
H761        H  0.82249311  0.38515685  0.88942502     0.17700
F762        F  0.81685199  0.46540042  0.92542981    -0.20000
C763        C  0.66896712  0.47855660  0.48479712    -0.21500
C764        C  0.71716880  0.51201133  0.99462006    -0.09500
C765        C  0.75396756  0.49035304  0.01547224     0.29300
C766        C  0.73642553  0.44371569  0.53264452    -0.21500
C767        C  0.69396474  0.41422915  0.52410320    -0.09500
C768        C  0.66019750  0.43206463  0.50005107     0.29300
F769        F  0.61895959  0.40413616  0.49087150    -0.20100
H770        H  0.64285117  0.49101283  0.46604254     0.17700
H771        H  0.76239773  0.43079366  0.55134406     0.17700
F772        F  0.80064377  0.51222237  0.01910421    -0.20000
C773        C  0.51893891  0.76520113  0.64597724    -0.21500
C774        C  0.50398560  0.79865522  0.62090613    -0.09500
C775        C  0.53550012  0.84017840  0.61308912     0.29300
C776        C  0.58055437  0.84813127  0.63004434    -0.21500
C777        C  0.59560897  0.81500559  0.65506997    -0.09500
C778        C  0.56471892  0.77307374  0.66287926     0.29300
F779        F  0.57791451  0.74085801  0.68723740    -0.20100
H780        H  0.49559137  0.73247871  0.65216170     0.17700
H781        H  0.60395210  0.88069443  0.62351394     0.17700
F782        F  0.52282875  0.87343962  0.58916548    -0.20000
C783        C  0.93238599  0.76996048  0.71428367    -0.21500
C784        C  0.90796804  0.81730055  0.71795442    -0.09500
C785        C  0.93125016  0.85487904  0.73749079     0.29300
C786        C  0.97739967  0.84496037  0.75313597    -0.21500
C787        C  0.00193158  0.79782797  0.74947720    -0.09500
C788        C  0.97925103  0.76032492  0.72969098     0.29300
F789        F  0.00113211  0.71359893  0.72639200    -0.20100
H790        H  0.91535358  0.74058170  0.69940298     0.17700
H791        H  0.99374217  0.87411246  0.76852539     0.17700
F792        F  0.90868915  0.90097774  0.74238685    -0.20000
C793        C  0.75867624  0.73905142  0.58638279    -0.21500
C794        C  0.78984067  0.78198506  0.59232746    -0.09500
C795        C  0.82466555  0.79723512  0.56811238     0.29300
C796        C  0.82698828  0.77069211  0.53854247    -0.21500
C797        C  0.79504473  0.72854017  0.53288093    -0.09500
C798        C  0.76095575  0.71296422  0.55705023     0.29300
F799        F  0.72807761  0.67381472  0.55166598    -0.20100
H800        H  0.73126618  0.72599230  0.60425554     0.17700
H801        H  0.85230256  0.78418806  0.51958898     0.17700
F802        F  0.85505506  0.83854437  0.57248155    -0.20000
C803        C  0.69603470  0.81754717  0.81134473    -0.21500
C804        C  0.69854920  0.79004155  0.78242244    -0.09500
C805        C  0.69696129  0.73633161  0.78326272     0.29300
C806        C  0.69618063  0.71044575  0.81284306    -0.21500
C807        C  0.69829538  0.73789946  0.84178908    -0.09500
C808        C  0.69653093  0.79166911  0.84094241     0.29300
F809        F  0.69795945  0.81909744  0.86878459    -0.20100
H810        H  0.69748534  0.85886243  0.81105197     0.17700
H811        H  0.69781785  0.66912905  0.81310344     0.17700
F812        F  0.69885299  0.70896941  0.75540693    -0.20000
C813        C  0.74811083  0.04110211  0.75735371    -0.21500
C814        C  0.78913697  0.01417525  0.74330926    -0.09500
C815        C  0.83878996  0.03339190  0.74590377     0.29300
C816        C  0.84741257  0.07825566  0.76310156    -0.21500
C817        C  0.80650006  0.10555141  0.77738277    -0.09500
C818        C  0.75648547  0.08685767  0.77389232     0.29300
F819        F  0.71581845  0.11255095  0.78632825    -0.20100
H820        H  0.70929667  0.02720005  0.75483340     0.17700
H821        H  0.88642253  0.09185313  0.76492287     0.17700
F822        F  0.87898571  0.00838435  0.73230798    -0.20000
C823        C  0.73202125  0.07087655  0.58344290    -0.21500
C824        C  0.70027773  0.10831760  0.59694624    -0.09500
C825        C  0.67425939  0.09831252  0.62603512     0.29300
C826        C  0.67976105  0.05144541  0.64138074    -0.21500
C827        C  0.71116334  0.01337806  0.62801499    -0.09500
C828        C  0.73731243  0.02343143  0.59873806     0.29300
F829        F  0.76803259  0.98773283  0.58490745    -0.20100
H830        H  0.75112049  0.07770283  0.56056071     0.17700
H831        H  0.65957043  0.04520267  0.66395561     0.17700
F832        F  0.64298812  0.13399066  0.63949463    -0.20000
loop_ 
_geom_bond_atom_site_label_1 
_geom_bond_atom_site_label_2 
_geom_bond_distance 
_geom_bond_site_symmetry_2 
_ccdc_geom_bond_type 
O1          Cr19   2.036       .  S
O1            C9   1.273       .  A
O2          Cr19   1.944       .  S
O2            C3   1.251       .  A
C3            O4   1.270       .  A
C3          C378   1.478       .  S
O4          Cr20   2.042       .  S
O5          Cr20   1.974       .  S
O5            C6   1.259       .  A
C6            O7   1.268       .  A
C6          C411   1.482   1_565  S
O7          Cr21   2.015       .  S
O8          Cr21   1.937       .  S
O8            C9   1.253       .  A
C9          C361   1.469       .  S
O10         Cr19   1.955       .  S
O10          C18   1.253       .  A
O11         Cr19   2.042       .  S
O11          C12   1.273       .  A
C12          O13   1.253       .  A
C12         C368   1.479       .  S
O13         Cr20   1.941       .  S
O14         Cr20   2.021       .  S
O14          C15   1.272       .  A
C15          O16   1.259       .  A
C15         C398   1.466   1_565  S
O16         Cr21   1.957       .  S
O17         Cr21   2.031       .  S
O17          C18   1.268       .  A
C18         C388   1.470       .  S
Cr19         O22   1.772       .  S
Cr20         O22   1.772       .  S
Cr21         O22   1.770       .  S
O23         Cr41   2.039       .  S
O23          C31   1.275       .  A
O24         Cr41   1.952       .  S
O24          C25   1.252       .  A
C25          O26   1.267       .  A
C25         C391   1.481       .  S
O26         Cr42   2.033       .  S
O27         Cr42   1.963       .  S
O27          C28   1.259       .  A
C28          O29   1.271       .  A
C28         C338   1.475       .  S
O29         Cr43   2.016       .  S
O30         Cr43   1.930       .  S
O30          C31   1.252       .  A
C31         C328   1.480       .  S
O32         Cr41   1.954       .  S
O32         C456   1.251       .  A
O33         Cr41   2.038       .  S
O33          C34   1.275       .  A
C34          O35   1.253       .  A
C34         C321   1.471       .  S
O35         Cr42   1.931       .  S
O36         Cr42   2.017       .  S
O36          C37   1.269       .  A
C37          O38   1.257       .  A
C37         C348   1.472       .  S
O38         Cr43   1.961       .  S
O39         Cr43   2.029       .  S
O39         C456   1.267       .  A
C40         O448   1.250       .  A
C40         O455   1.272       .  A
C40         C381   1.488   1_556  S
Cr41         O44   1.766       .  S
Cr42         O44   1.771       .  S
Cr43         O44   1.766       .  S
O45         Cr63   1.952       .  S
O45          C53   1.253       .  A
O46         Cr63   2.032       .  S
O46          C47   1.272       .  A
C47          O48   1.254       .  A
C47         C281   1.470       .  S
O48         Cr64   1.933       .  S
O49         Cr64   2.026       .  S
O49          C50   1.272       .  A
C50          O51   1.259       .  A
C50         C371   1.487       .  S
O51         Cr65   1.972       .  S
O52         Cr65   2.032       .  S
O52          C53   1.269       .  A
C53         C301   1.477       .  S
O54         Cr63   2.028       .  S
O54          C62   1.270       .  A
O55         Cr63   1.958       .  S
O55          C56   1.253       .  A
C56          O57   1.270       .  A
C56         C288   1.483       .  S
O57         Cr64   2.037       .  S
O58         Cr64   1.956       .  S
O58          C59   1.257       .  A
C59          O60   1.271       .  A
C59         C331   1.468       .  S
O60         Cr65   2.022       .  S
O61         Cr65   1.936       .  S
O61          C62   1.253       .  A
C62         C308   1.463       .  S
Cr63         O66   1.777       .  S
Cr64         O66   1.768       .  S
Cr65         O66   1.772       .  S
O67         Cr85   1.957       .  S
O67         C491   1.254   1_554  A
O68         Cr85   2.043       .  S
O68          C69   1.275       .  A
C69          O70   1.255       .  A
C69         C271   1.472       .  S
O70         Cr86   1.935       .  S
O71         Cr86   2.015       .  S
O71          C72   1.269       .  A
C72          O73   1.258       .  A
C72         C318   1.474       .  S
O73         Cr87   1.965       .  S
O74         Cr87   2.038       .  S
O74         C491   1.270   1_554  A
C75         O483   1.253       .  A
C75         O490   1.268       .  A
C75         C291   1.484       .  S
O76         Cr85   2.043       .  S
O76          C84   1.275       .  A
O77         Cr85   1.956       .  S
O77          C78   1.252       .  A
C78          O79   1.265       .  A
C78         C298   1.473       .  S
O79         Cr86   2.026       .  S
O80         Cr86   1.960       .  S
O80          C81   1.259       .  A
C81          O82   1.271       .  A
C81         C358   1.476       .  S
O82         Cr87   2.021       .  S
O83         Cr87   1.941       .  S
O83          C84   1.252       .  A
C84         C258   1.477       .  S
Cr85         O88   1.772       .  S
Cr86         O88   1.771       .  S
Cr87         O88   1.772       .  S
O89        Cr107   2.028       .  S
O89          C97   1.272       .  A
O90        Cr107   1.956       .  S
O90          C91   1.252       .  A
C91          O92   1.271       .  A
C91         C251   1.477       .  S
O92        Cr108   2.041       .  S
O93        Cr108   1.966       .  S
O93          C94   1.259       .  A
C94          O95   1.268       .  A
C94         C278   1.471       .  S
O95        Cr109   2.007       .  S
O96        Cr109   1.945       .  S
O96          C97   1.255       .  A
C97         C231   1.477       .  S
O98        Cr107   1.955       .  S
O98         C106   1.253       .  A
O99        Cr107   2.034       .  S
O99         C100   1.272       .  A
C100        O101   1.253       .  A
C100        C218   1.469       .  S
O101       Cr108   1.936       .  S
O102       Cr108   2.034       .  S
O102        C103   1.274       .  A
C103        O104   1.259       .  A
C103        C261   1.487       .  S
O104       Cr109   1.966       .  S
O105       Cr109   2.022       .  S
O105        C106   1.266       .  A
C106        C238   1.472       .  S
Cr107       O110   1.772       .  S
Cr108       O110   1.771       .  S
Cr109       O110   1.767       .  S
O111       Cr129   2.045       .  S
O111        C119   1.275       .  A
O112       Cr129   1.950       .  S
O112        C529   1.252       .  A
C113        O528   1.251   1_554  A
C113        O530   1.268   1_554  A
C113        C241   1.470       .  S
O114       Cr130   2.035       .  S
O114        C529   1.269       .  A
O115       Cr130   1.963       .  S
O115        C116   1.258       .  A
C116        O117   1.271       .  A
C116        C268   1.479       .  S
O117       Cr131   2.026       .  S
O118       Cr131   1.937       .  S
O118        C119   1.253       .  A
C119        C201   1.475       .  S
O120       Cr129   1.954       .  S
O120        C128   1.252       .  A
O121       Cr129   2.036       .  S
O121        C122   1.274       .  A
C122        O123   1.254       .  A
C122        C208   1.485       .  S
O123       Cr130   1.943       .  S
O124       Cr130   2.020       .  S
O124        C125   1.272       .  A
C125        O126   1.257       .  A
C125        C311   1.476       .  S
O126       Cr131   1.959       .  S
O127       Cr131   2.043       .  S
O127        C128   1.271       .  A
C128        C248   1.494       .  S
Cr129       O132   1.767       .  S
Cr130       O132   1.771       .  S
Cr131       O132   1.770       .  S
O133       Cr151   1.958       .  S
O133        C141   1.253       .  A
O134       Cr151   2.038       .  S
O134        C135   1.273       .  A
C135        O136   1.252       .  A
C135        C341   1.465       .  S
O136       Cr152   1.925       .  S
O137       Cr152   2.027       .  S
O137        C138   1.271       .  A
C138        O139   1.256       .  A
C138        C211   1.470       .  S
O139       Cr153   1.959       .  S
O140       Cr153   2.032       .  S
O140        C141   1.268       .  A
C141        C178   1.483       .  S
O142       Cr151   2.036       .  S
O142        C150   1.274       .  A
O143       Cr151   1.953       .  S
O143        C144   1.252       .  A
C144        O145   1.269       .  A
C144        C188   1.482       .  S
O145       Cr152   2.039       .  S
O146       Cr152   1.960       .  S
O146        C147   1.258       .  A
C147        O148   1.271       .  A
C147        C228   1.472   1_655  S
O148       Cr153   2.021       .  S
O149       Cr153   1.935       .  S
O149        C150   1.253       .  A
C150        C401   1.480       .  S
Cr151       O154   1.773       .  S
Cr152       O154   1.773       .  S
Cr153       O154   1.770       .  S
O155       Cr173   1.958       .  S
O155        C163   1.252       .  A
O156       Cr173   2.042       .  S
O156        C157   1.275       .  A
C157        O158   1.254       .  A
C157        C408   1.479       .  S
O158       Cr174   1.939       .  S
O159       Cr174   2.022       .  S
O159        C160   1.272       .  A
C160        O161   1.258       .  A
C160        C221   1.481       .  S
O161       Cr175   1.963       .  S
O162       Cr175   2.030       .  S
O162        C163   1.266       .  A
C163        C191   1.477       .  S
O164       Cr173   2.038       .  S
O164        C172   1.275       .  A
O165       Cr173   1.956       .  S
O165        C582   1.252       .  A
C166        O581   1.254       .  A
C166        O583   1.269       .  A
C166        C181   1.478       .  S
O167       Cr174   2.035       .  S
O167        C582   1.269       .  A
O168       Cr174   1.967       .  S
O168        C169   1.258       .  A
C169        O170   1.270       .  A
C169        C198   1.477       .  S
O170       Cr175   2.020       .  S
O171       Cr175   1.934       .  S
O171        C172   1.253       .  A
C172        C351   1.477       .  S
Cr173       O176   1.776       .  S
Cr174       O176   1.773       .  S
Cr175       O176   1.774       .  S
C177        C178   1.402       .  A
C177        C182   1.403       .  A
C177        H184   1.083       .  S
C178        C179   1.412       .  A
C179        C180   1.402       .  A
C179        F186   1.358       .  S
C180        C181   1.400       .  A
C180        H185   1.083       .  S
C181        C182   1.409       .  A
C182        F183   1.357       .  S
C187        C188   1.402       .  A
C187        C192   1.404       .  A
C187        H194   1.083       .  S
C188        C189   1.412       .  A
C189        C190   1.400       .  A
C189        F196   1.358       .  S
C190        C191   1.399       .  A
C190        H195   1.084       .  S
C191        C192   1.410       .  A
C192        F193   1.357       .  S
C197        C198   1.399       .  A
C197        C202   1.391   1_554  A
C197        H204   1.084       .  S
C198        C615   1.412   1_554  A
C199        C200   1.406       .  A
C199        C614   1.415       .  A
C199        F206   1.357       .  S
C200        C201   1.402       .  A
C200        H205   1.083       .  S
C201        C618   1.408       .  A
C202        C617   1.412       .  A
C202        F203   1.359   1_556  S
C207        C208   1.413       .  A
C207        C212   1.395       .  A
C207        H214   1.083       .  S
C208        C209   1.406       .  A
C209        C210   1.401       .  A
C209        F216   1.357       .  S
C210        C211   1.406   1_455  A
C210        H215   1.083       .  S
C211        C212   1.398   1_655  A
C212        F213   1.358   1_455  S
C217        C218   1.400       .  A
C217        C222   1.403       .  A
C217        H224   1.083       .  S
C218        C219   1.406       .  A
C219        C220   1.390       .  A
C219        F226   1.359       .  S
C220        C221   1.402       .  A
C220        H225   1.083       .  S
C221        C222   1.415       .  A
C222        F223   1.357       .  S
C227        C228   1.407       .  A
C227        C232   1.399       .  A
C227        H234   1.083       .  S
C228        C229   1.401       .  A
C229        C230   1.393       .  A
C229        F236   1.358       .  S
C230        C231   1.409       .  A
C230        H235   1.083       .  S
C231        C232   1.405       .  A
C232        F233   1.357       .  S
C237        C238   1.400       .  A
C237        C242   1.399       .  A
C237        H244   1.084       .  S
C238        C239   1.409       .  A
C239        C240   1.398       .  A
C239        F246   1.357       .  S
C240        C241   1.398       .  A
C240        H245   1.083       .  S
C241        C242   1.410       .  A
C242        F243   1.358       .  S
C247        C248   1.411       .  A
C247        C252   1.397       .  A
C247        H254   1.083       .  S
C248        C249   1.409       .  A
C249        C250   1.410       .  A
C249        F256   1.357       .  S
C250        C251   1.407       .  A
C250        H255   1.083       .  S
C251        C252   1.400       .  A
C252        F253   1.358       .  S
C257        C258   1.399       .  A
C257        C262   1.403       .  A
C257        H264   1.084       .  S
C258        C259   1.410       .  A
C259        C260   1.396       .  A
C259        F266   1.359       .  S
C260        C261   1.403   1_565  A
C260        H265   1.084       .  S
C261        C262   1.416   1_545  A
C262        F263   1.357   1_565  S
C267        C272   1.404       .  A
C267        C684   1.411   1_554  A
C267        H274   1.083       .  S
C268        C269   1.403       .  A
C268        C683   1.412       .  A
C269        C686   1.392       .  A
C269        F276   1.358       .  S
C270        C271   1.404       .  A
C270        C685   1.388   1_554  A
C270        H275   1.084   1_554  S
C271        C272   1.403       .  A
C272        F273   1.357       .  S
C277        C278   1.409   1_565  A
C277        C282   1.402       .  A
C277        H284   1.083   1_565  S
C278        C279   1.402   1_545  A
C279        C280   1.386       .  A
C279        F286   1.358       .  S
C280        C281   1.405       .  A
C280        H285   1.083       .  S
C281        C282   1.403       .  A
C282        F283   1.357       .  S
C287        C288   1.409       .  A
C287        C292   1.403       .  A
C287        H294   1.083       .  S
C288        C289   1.403       .  A
C289        C290   1.404       .  A
C289        F296   1.357       .  S
C290        C291   1.410       .  A
C290        H295   1.083       .  S
C291        C292   1.403       .  A
C292        F293   1.357       .  S
C297        C298   1.407       .  A
C297        C302   1.401       .  A
C297        H304   1.084       .  S
C298        C299   1.401       .  A
C299        C300   1.400       .  A
C299        F306   1.358       .  S
C300        C301   1.409       .  A
C300        H305   1.084       .  S
C301        C302   1.402       .  A
C302        F303   1.357       .  S
C307        C308   1.399       .  A
C307        C312   1.401       .  A
C307        H314   1.083       .  S
C308        C309   1.405       .  A
C309        C310   1.388       .  A
C309        F316   1.359       .  S
C310        C311   1.401       .  A
C310        H315   1.083       .  S
C311        C312   1.415       .  A
C312        F313   1.357       .  S
C317        C318   1.399       .  A
C317        C738   1.390   1_554  A
C317        H324   1.084       .  S
C318        C735   1.411   1_554  A
C319        C320   1.401       .  A
C319        C734   1.413       .  A
C319        F326   1.357       .  S
C320        C321   1.399       .  A
C320        H325   1.083       .  S
C321        C322   1.410       .  A
C322        C733   1.391       .  A
C322        F739   1.359       .  S
F323        C738   1.359       .  S
C327        C328   1.412       .  A
C327        C332   1.391       .  A
C327        H334   1.083       .  S
C328        C329   1.404       .  A
C329        C330   1.401       .  A
C329        F336   1.357       .  S
C330        C331   1.408   1_655  A
C330        H335   1.083       .  S
C331        C332   1.397   1_455  A
C332        F333   1.358   1_655  S
C337        C338   1.411       .  A
C337        C342   1.402       .  A
C337        H344   1.083       .  S
C338        C339   1.405       .  A
C339        C340   1.387       .  A
C339        F346   1.358       .  S
C340        C341   1.404       .  A
C340        H345   1.084       .  S
C341        C342   1.401       .  A
C342        F343   1.357       .  S
C347        C352   1.390   1_556  A
C347        C764   1.398       .  A
C347        H354   1.083       .  S
C348        C349   1.411       .  A
C348        C763   1.400       .  A
C349        C766   1.398       .  A
C349        F356   1.357       .  S
C350        C351   1.402       .  A
C350        C765   1.401       .  A
C350        H355   1.082       .  S
C351        C352   1.413       .  A
C352        F353   1.359       .  S
C357        C358   1.410       .  A
C357        C362   1.400       .  A
C357        H364   1.083       .  S
C358        C359   1.405       .  A
C359        C360   1.390       .  A
C359        F366   1.358       .  S
C360        C361   1.405       .  A
C360        H365   1.084       .  S
C361        C362   1.401       .  A
C362        F363   1.357       .  S
C367        C368   1.403       .  A
C367        C372   1.407       .  A
C367        H374   1.083       .  S
C368        C369   1.409       .  A
C369        C370   1.393       .  A
C369        F376   1.359       .  S
C370        C371   1.402   1_655  A
C370        H375   1.083       .  S
C371        C372   1.415   1_455  A
C372        F373   1.357   1_655  S
C377        C378   1.409       .  A
C377        C382   1.414       .  A
C377        H384   1.083       .  S
C378        C379   1.403       .  A
C379        C380   1.387       .  A
C379        F386   1.359       .  S
C380        C381   1.407       .  A
C380        H385   1.084       .  S
C381        C382   1.411       .  A
C382        F383   1.356       .  S
C387        C388   1.396       .  A
C387        C392   1.396       .  A
C387        H394   1.084       .  S
C388        C389   1.409       .  A
C389        C390   1.405       .  A
C389        F396   1.358       .  S
C390        C391   1.404       .  A
C390        H395   1.083       .  S
C391        C392   1.412       .  A
C392        F393   1.358       .  S
C397        C398   1.407       .  A
C397        C402   1.400       .  A
C397        H404   1.083       .  S
C398        C399   1.397       .  A
C399        C400   1.391       .  A
C399        F406   1.358       .  S
C400        C401   1.412       .  A
C400        H405   1.083       .  S
C401        C402   1.405       .  A
C402        F403   1.357       .  S
C407        C408   1.403       .  A
C407        C412   1.406       .  A
C407        H414   1.083       .  S
C408        C409   1.410       .  A
C409        C410   1.392       .  A
C409        F416   1.359       .  S
C410        C411   1.402       .  A
C410        H415   1.083       .  S
C411        C412   1.413       .  A
C412        F413   1.357       .  S
O417       Cr435   2.038       .  S
O417        C425   1.274       .  A
O418       Cr435   1.944       .  S
O418        C419   1.250       .  A
C419        O420   1.271       .  A
C419        C794   1.492       .  S
O420       Cr436   2.042       .  S
O421       Cr436   1.965       .  S
O421        C422   1.257       .  A
C422        O423   1.267       .  A
C422        C827   1.476   1_565  S
O423       Cr437   2.010       .  S
O424       Cr437   1.929       .  S
O424        C425   1.253       .  A
C425        C777   1.469       .  S
O426       Cr435   1.948       .  S
O426        C434   1.251       .  A
O427       Cr435   2.040       .  S
O427        C428   1.275       .  A
C428        O429   1.252       .  A
C428        C784   1.481       .  S
O429       Cr436   1.936       .  S
O430       Cr436   2.032       .  S
O430        C431   1.274       .  A
C431        O432   1.259       .  A
C431        C814   1.466   1_565  S
O432       Cr437   1.953       .  S
O433       Cr437   2.024       .  S
O433        C434   1.265       .  A
C434        C804   1.467       .  S
Cr435       O438   1.766       .  S
Cr436       O438   1.769       .  S
Cr437       O438   1.770       .  S
O439       Cr457   2.031       .  S
O439        C447   1.271       .  A
O440       Cr457   1.943       .  S
O440        C441   1.252       .  A
C441        O442   1.269       .  A
C441        C807   1.468       .  S
O442       Cr458   2.029       .  S
O443       Cr458   1.968       .  S
O443        C444   1.258       .  A
C444        O445   1.273       .  A
C444        C754   1.485       .  S
O445       Cr459   2.032       .  S
O446       Cr459   1.942       .  S
O446        C447   1.253       .  A
C447        C744   1.461       .  S
O448       Cr457   1.936       .  S
O449       Cr457   2.028       .  S
O449        C450   1.270       .  A
C450        O451   1.253       .  A
C450        C737   1.474       .  S
O451       Cr458   1.942       .  S
O452       Cr458   2.018       .  S
O452        C453   1.271       .  A
C453        O454   1.260       .  A
C453        C764   1.471       .  S
O454       Cr459   1.963       .  S
O455       Cr459   2.055       .  S
C456        C797   1.470       .  S
Cr457       O460   1.766       .  S
Cr458       O460   1.764       .  S
Cr459       O460   1.771       .  S
O461       Cr479   1.957       .  S
O461        C469   1.252       .  A
O462       Cr479   2.043       .  S
O462        C463   1.276       .  A
C463        O464   1.253       .  A
C463        C697   1.479       .  S
O464       Cr480   1.928       .  S
O465       Cr480   2.025       .  S
O465        C466   1.271       .  A
C466        O467   1.259       .  A
C466        C787   1.477       .  S
O467       Cr481   1.966       .  S
O468       Cr481   2.035       .  S
O468        C469   1.269       .  A
C469        C717   1.482       .  S
O470       Cr479   2.040       .  S
O470        C478   1.275       .  A
O471       Cr479   1.963       .  S
O471        C472   1.252       .  A
C472        O473   1.267       .  A
C472        C704   1.479       .  S
O473       Cr480   2.029       .  S
O474       Cr480   1.962       .  S
O474        C475   1.257       .  A
C475        O476   1.270       .  A
C475        C747   1.479   1_455  S
O476       Cr481   2.023       .  S
O477       Cr481   1.941       .  S
O477        C478   1.254       .  A
C478        C724   1.475       .  S
Cr479       O482   1.777       .  S
Cr480       O482   1.770       .  S
Cr481       O482   1.775       .  S
O483       Cr501   1.958       .  S
O484       Cr501   2.047       .  S
O484        C485   1.278       .  A
C485        O486   1.254       .  A
C485        C687   1.476       .  S
O486       Cr502   1.933       .  S
O487       Cr502   2.019       .  S
O487        C488   1.268       .  A
C488        O489   1.256       .  A
C488        C734   1.477       .  S
O489       Cr503   1.965       .  S
O490       Cr503   2.030       .  S
C491        C707   1.490       .  S
O492       Cr501   2.040       .  S
O492        C500   1.276       .  A
O493       Cr501   1.961       .  S
O493        C494   1.252       .  A
C494        O495   1.266       .  A
C494        C714   1.481       .  S
O495       Cr502   2.031       .  S
O496       Cr502   1.960       .  S
O496        C497   1.259       .  A
C497        O498   1.273       .  A
C497        C774   1.475       .  S
O498       Cr503   2.021       .  S
O499       Cr503   1.941       .  S
O499        C500   1.253       .  A
C500        C674   1.483       .  S
Cr501       O504   1.774       .  S
Cr502       O504   1.775       .  S
Cr503       O504   1.772       .  S
O505       Cr523   2.039       .  S
O505        C513   1.275       .  A
O506       Cr523   1.952       .  S
O506        C507   1.251       .  A
C507        O508   1.265       .  A
C507        C667   1.468       .  S
O508       Cr524   2.022       .  S
O509       Cr524   1.962       .  S
O509        C510   1.256       .  A
C510        O511   1.268       .  A
C510        C694   1.471       .  S
O511       Cr525   2.017       .  S
O512       Cr525   1.938       .  S
O512        C513   1.255       .  A
C513        C647   1.476       .  S
O514       Cr523   1.959       .  S
O514        C522   1.253       .  A
O515       Cr523   2.037       .  S
O515        C516   1.274       .  A
C516        O517   1.251       .  A
C516        C634   1.472       .  S
O517       Cr524   1.924       .  S
O518       Cr524   2.025       .  S
O518        C519   1.272       .  A
C519        O520   1.260       .  A
C519        C677   1.477       .  S
O520       Cr525   1.966       .  S
O521       Cr525   2.027       .  S
O521        C522   1.266       .  A
C522        C654   1.478       .  S
Cr523       O526   1.779       .  S
Cr524       O526   1.775       .  S
Cr525       O526   1.771       .  S
O527       Cr545   2.043       .  S
O527        C535   1.275       .  A
O528       Cr545   1.945       .  S
C529        C657   1.477       .  S
O530       Cr546   2.031       .  S
O531       Cr546   1.970       .  S
O531        C532   1.260       .  A
C532        O533   1.270       .  A
C532        C684   1.478       .  S
O533       Cr547   2.013       .  S
O534       Cr547   1.935       .  S
O534        C535   1.253       .  A
C535        C617   1.478       .  S
O536       Cr545   1.947       .  S
O536        C544   1.251       .  A
O537       Cr545   2.037       .  S
O537        C538   1.273       .  A
C538        O539   1.254       .  A
C538        C624   1.468       .  S
O539       Cr546   1.937       .  S
O540       Cr546   2.027       .  S
O540        C541   1.272       .  A
C541        O542   1.258       .  A
C541        C727   1.482       .  S
O542       Cr547   1.964       .  S
O543       Cr547   2.029       .  S
O543        C544   1.267       .  A
C544        C664   1.479       .  S
Cr545       O548   1.771       .  S
Cr546       O548   1.771       .  S
Cr547       O548   1.766       .  S
O549       Cr567   1.964       .  S
O549        C557   1.254       .  A
O550       Cr567   2.038       .  S
O550        C551   1.274       .  A
C551        O552   1.254       .  A
C551        C757   1.467       .  S
O552       Cr568   1.945       .  S
O553       Cr568   2.025       .  S
O553        C554   1.272       .  A
C554        O555   1.257       .  A
C554        C627   1.481       .  S
O555       Cr569   1.961       .  S
O556       Cr569   2.026       .  S
O556        C557   1.266       .  A
C557        C594   1.480       .  S
O558       Cr567   2.033       .  S
O558        C566   1.274       .  A
O559       Cr567   1.955       .  S
O559        C560   1.252       .  A
C560        O561   1.270       .  A
C560        C604   1.490       .  S
O561       Cr568   2.042       .  S
O562       Cr568   1.969       .  S
O562        C563   1.260       .  A
C563        O564   1.269       .  A
C563        C644   1.476   1_655  S
O564       Cr569   2.016       .  S
O565       Cr569   1.937       .  S
O565        C566   1.254       .  A
C566        C817   1.481       .  S
Cr567       O570   1.773       .  S
Cr568       O570   1.776       .  S
Cr569       O570   1.773       .  S
O571       Cr589   1.964       .  S
O571        C579   1.253       .  A
O572       Cr589   2.030       .  S
O572        C573   1.271       .  A
C573        O574   1.252       .  A
C573        C824   1.461       .  S
O574       Cr590   1.934       .  S
O575       Cr590   2.019       .  S
O575        C576   1.272       .  A
C576        O577   1.256       .  A
C576        C637   1.473       .  S
O577       Cr591   1.959       .  S
O578       Cr591   2.032       .  S
O578        C579   1.268       .  A
C579        C607   1.479       .  S
O580       Cr589   2.031       .  S
O580        C588   1.273       .  A
O581       Cr589   1.959       .  S
C582        C597   1.485   1_554  S
O583       Cr590   2.031       .  S
O584       Cr590   1.969       .  S
O584        C585   1.258       .  A
C585        O586   1.271       .  A
C585        C614   1.484       .  S
O586       Cr591   2.023       .  S
O587       Cr591   1.934       .  S
O587        C588   1.253       .  A
C588        C767   1.467       .  S
Cr589       O592   1.776       .  S
Cr590       O592   1.770       .  S
Cr591       O592   1.770       .  S
C593        C594   1.400       .  A
C593        C598   1.401       .  A
C593        H600   1.084       .  S
C594        C595   1.410       .  A
C595        C596   1.405       .  A
C595        F602   1.357       .  S
C596        C597   1.403       .  A
C596        H601   1.083       .  S
C597        C598   1.412       .  A
C598        F599   1.358       .  S
C603        C604   1.405       .  A
C603        C608   1.408       .  A
C603        H610   1.083       .  S
C604        C605   1.414       .  A
C605        C606   1.400       .  A
C605        F612   1.358       .  S
C606        C607   1.398       .  A
C606        H611   1.084       .  S
C607        C608   1.410       .  A
C608        F609   1.357       .  S
C613        C614   1.402       .  A
C613        C618   1.391       .  A
C613        H620   1.083       .  S
C615        C616   1.404       .  A
C615        F622   1.357       .  S
C616        C617   1.402       .  A
C616        H621   1.083       .  S
C618        F619   1.359       .  S
C623        C624   1.403       .  A
C623        C628   1.390       .  A
C623        H630   1.084       .  S
C624        C625   1.401       .  A
C625        C626   1.403       .  A
C625        F632   1.357       .  S
C626        C627   1.413   1_455  A
C626        H631   1.083   1_455  S
C627        C628   1.405   1_655  A
C628        F629   1.357       .  S
C633        C634   1.401       .  A
C633        C638   1.402       .  A
C633        H640   1.083       .  S
C634        C635   1.411       .  A
C635        C636   1.387       .  A
C635        F642   1.359       .  S
C636        C637   1.397       .  A
C636        H641   1.084       .  S
C637        C638   1.413       .  A
C638        F639   1.357       .  S
C643        C644   1.409       .  A
C643        C648   1.403       .  A
C643        H650   1.083       .  S
C644        C645   1.404       .  A
C645        C646   1.391       .  A
C645        F652   1.358       .  S
C646        C647   1.407       .  A
C646        H651   1.084       .  S
C647        C648   1.404       .  A
C648        F649   1.357       .  S
C653        C654   1.399       .  A
C653        C658   1.399       .  A
C653        H660   1.083       .  S
C654        C655   1.411       .  A
C655        C656   1.404       .  A
C655        F662   1.358       .  S
C656        C657   1.401       .  A
C656        H661   1.083       .  S
C657        C658   1.410       .  A
C658        F659   1.358       .  S
C663        C664   1.409       .  A
C663        C668   1.395       .  A
C663        H670   1.083       .  S
C664        C665   1.404       .  A
C665        C666   1.403       .  A
C665        F672   1.357       .  S
C666        C667   1.407       .  A
C666        H671   1.083       .  S
C667        C668   1.398       .  A
C668        F669   1.358       .  S
C673        C674   1.401       .  A
C673        C678   1.402       .  A
C673        H680   1.083       .  S
C674        C675   1.416       .  A
C675        C676   1.396       .  A
C675        F682   1.359       .  S
C676        C677   1.399   1_565  A
C676        H681   1.084   1_565  S
C677        C678   1.410   1_545  A
C678        F679   1.357   1_565  S
C683        C688   1.403       .  A
C683        H690   1.083       .  S
C684        C685   1.405       .  A
C685        F692   1.358       .  S
C686        C687   1.408       .  A
C686        H691   1.084       .  S
C687        C688   1.402       .  A
C688        F689   1.357       .  S
C693        C694   1.410   1_565  A
C693        C698   1.403       .  A
C693        H700   1.083   1_565  S
C694        C695   1.399   1_545  A
C695        C696   1.390       .  A
C695        F702   1.358   1_565  S
C696        C697   1.411       .  A
C696        H701   1.083       .  S
C697        C698   1.404       .  A
C698        F699   1.357       .  S
C703        C704   1.408       .  A
C703        C708   1.407       .  A
C703        H710   1.083       .  S
C704        C705   1.401       .  A
C705        C706   1.401       .  A
C705        F712   1.358       .  S
C706        C707   1.411       .  A
C706        H711   1.083       .  S
C707        C708   1.407       .  A
C708        F709   1.357       .  S
C713        C714   1.408       .  A
C713        C718   1.403       .  A
C713        H720   1.083       .  S
C714        C715   1.403       .  A
C715        C716   1.403       .  A
C715        F722   1.357       .  S
C716        C717   1.409       .  A
C716        H721   1.083       .  S
C717        C718   1.403       .  A
C718        F719   1.357       .  S
C723        C724   1.400       .  A
C723        C728   1.402       .  A
C723        H730   1.083       .  S
C724        C725   1.410       .  A
C725        C726   1.394       .  A
C725        F732   1.359       .  S
C726        C727   1.402       .  A
C726        H731   1.083       .  S
C727        C728   1.414       .  A
C728        F729   1.357       .  S
C733        C734   1.400       .  A
C733        H740   1.084       .  S
C735        C736   1.401       .  A
C735        F742   1.357       .  S
C736        C737   1.402       .  A
C736        H741   1.083       .  S
C737        C738   1.410       .  A
C743        C744   1.400       .  A
C743        C748   1.392       .  A
C743        H750   1.084       .  S
C744        C745   1.400       .  A
C745        C746   1.401       .  A
C745        F752   1.357       .  S
C746        C747   1.410       .  A
C746        H751   1.083   1_655  S
C747        C748   1.408       .  A
C748        F749   1.358       .  S
C753        C754   1.410       .  A
C753        C758   1.404       .  A
C753        H760   1.083       .  S
C754        C755   1.409       .  A
C755        C756   1.396       .  A
C755        F762   1.357       .  S
C756        C757   1.401       .  A
C756        H761   1.084       .  S
C757        C758   1.403       .  A
C758        F759   1.357       .  S
C763        C768   1.390       .  A
C763        H770   1.083       .  S
C764        C765   1.410   1_556  A
C765        F772   1.357       .  S
C766        C767   1.400       .  A
C766        H771   1.083       .  S
C767        C768   1.409       .  A
C768        F769   1.359       .  S
C773        C774   1.411       .  A
C773        C778   1.402       .  A
C773        H780   1.083       .  S
C774        C775   1.403       .  A
C775        C776   1.387       .  A
C775        F782   1.358       .  S
C776        C777   1.405       .  A
C776        H781   1.084       .  S
C777        C778   1.402       .  A
C778        F779   1.357       .  S
C783        C784   1.402       .  A
C783        C788   1.403       .  A
C783        H790   1.083       .  S
C784        C785   1.414       .  A
C785        C786   1.393       .  A
C785        F792   1.358       .  S
C786        C787   1.398   1_655  A
C786        H791   1.084       .  S
C787        C788   1.412   1_455  A
C788        F789   1.357   1_655  S
C793        C794   1.413       .  A
C793        C798   1.393       .  A
C793        H800   1.083       .  S
C794        C795   1.409       .  A
C795        C796   1.408       .  A
C795        F802   1.357       .  S
C796        C797   1.406       .  A
C796        H801   1.083       .  S
C797        C798   1.398       .  A
C798        F799   1.359       .  S
C803        C804   1.398       .  A
C803        C808   1.398       .  A
C803        H810   1.084       .  S
C804        C805   1.409       .  A
C805        C806   1.397       .  A
C805        F812   1.358       .  S
C806        C807   1.398       .  A
C806        H811   1.084       .  S
C807        C808   1.410       .  A
C808        F809   1.358       .  S
C813        C814   1.407       .  A
C813        C818   1.399       .  A
C813        H820   1.084       .  S
C814        C815   1.397       .  A
C815        C816   1.394       .  A
C815        F822   1.358       .  S
C816        C817   1.413       .  A
C816        H821   1.083       .  S
C817        C818   1.404       .  A
C818        F819   1.357       .  S
C823        C824   1.399       .  A
C823        C828   1.401       .  A
C823        H830   1.083       .  S
C824        C825   1.404       .  A
C825        C826   1.389       .  A
C825        F832   1.359       .  S
C826        C827   1.403       .  A
C826        H831   1.083       .  S
C827        C828   1.413       .  A
C828        F829   1.357   1_545  S
