geometry optimzed in LAMMPS
_audit_creation_date              2020-11-30 
_audit_creation_method            'lammps2cif' 
_symmetry_space_group_name_H-M    'P1' 
_symmetry_Int_Tables_number       1 
_symmetry_cell_setting            triclinic 
loop_ 
_symmetry_equiv_pos_as_xyz 
  x,y,z 
_cell_length_a                    37.67003977 
_cell_length_b                    37.62311984558361 
_cell_length_c                    42.58322636962095 
_cell_angle_alpha                 89.97137080942771 
_cell_angle_beta                  89.82899435546366 
_cell_angle_gamma                 119.91698248111622 
loop_ 
_atom_site_label 
_atom_site_type_symbol 
_atom_site_fract_x 
_atom_site_fract_y 
_atom_site_fract_z 
_atom_site_charge 
O1          O  0.69035989  0.87379477  0.08682245    -0.84700
O2          O  0.68696536  0.89099235  0.14960162    -0.81700
C3          C  0.67238851  0.88765799  0.17689362     0.98800
O4          O  0.64537708  0.85282539  0.18699303    -0.81700
O5          O  0.57535876  0.83394323  0.15310700    -0.84400
C6          C  0.55082306  0.82276166  0.13025769     1.03300
O7          O  0.55507020  0.80368581  0.10745949    -0.77200
O8          O  0.62710911  0.85912865  0.07798277    -0.77300
C9          C  0.66509474  0.88153628  0.07325762     1.03300
O10         O  0.68786856  0.79897280  0.10477012    -0.84700
O11         O  0.69186838  0.81979914  0.16738803    -0.81700
C12         C  0.66747353  0.78576690  0.18014502     0.98800
O13         O  0.62936187  0.77002533  0.17656704    -0.81800
O14         O  0.55643627  0.75038286  0.14858156    -0.84400
C15         C  0.55350167  0.72710933  0.12609806     1.03300
O16         O  0.57723230  0.74164702  0.10264470    -0.77200
O17         O  0.64609586  0.79522930  0.06757558    -0.77300
C18         C  0.67409541  0.78881447  0.07728358     1.03300
Cr19       Cr  0.68506837  0.84376987  0.12719230     1.93700
Cr20       Cr  0.60389747  0.80295768  0.16358773     1.93200
Cr21       Cr  0.60355052  0.80110086  0.09167462     1.39100
O22         O  0.63083671  0.81607419  0.12747745    -1.22400
O23         O  0.21647319  0.89113126  0.14542859    -0.84700
O24         O  0.19587047  0.87386213  0.08309451    -0.81700
C25         C  0.22981304  0.88281961  0.07039829     0.98800
O26         O  0.24532005  0.86046355  0.07534351    -0.81700
O27         O  0.26320089  0.80592050  0.10387050    -0.84400
C28         C  0.28496452  0.82332115  0.12771140     1.03300
O29         O  0.27004771  0.83192174  0.15100369    -0.77200
O30         O  0.22078682  0.85354211  0.18318921    -0.77300
C31         C  0.22790698  0.88805864  0.17258821     1.03300
O32         O  0.14131641  0.82145966  0.16441239    -0.84700
O33         O  0.12439676  0.79858311  0.10253667    -0.81700
C34         C  0.12722357  0.78650577  0.07555320     0.98800
O35         O  0.16201662  0.79516288  0.06469637    -0.81800
O36         O  0.17930384  0.74330720  0.09768194    -0.84400
C37         C  0.18662017  0.72736145  0.12096842     1.03300
O38         O  0.20421373  0.74873559  0.14505406    -0.77200
O39         O  0.15300338  0.77113975  0.17364066    -0.77300
C40         C  0.13201782  0.78820944  0.17830242     1.03300
Cr41       Cr  0.17154631  0.84407259  0.12380271     1.93700
Cr42       Cr  0.21148856  0.80246819  0.08818877     1.93200
Cr43       Cr  0.21089966  0.80239862  0.16042304     1.39100
O44         O  0.19820986  0.81636775  0.12421724    -1.22400
O45         O  0.14017179  0.32602360  0.16333857    -0.84700
O46         O  0.12579157  0.33052213  0.10083143    -0.81700
C47         C  0.13079693  0.34346462  0.07299364     0.98800
O48         O  0.16612125  0.36908605  0.06287575    -0.81700
O49         O  0.18699879  0.44130228  0.09455182    -0.84400
C50         C  0.19673322  0.46569320  0.11748030     1.03300
O51         O  0.21376562  0.46081164  0.14134449    -0.77200
O52         O  0.15589077  0.38967205  0.17090207    -0.77300
C53         C  0.13201651  0.35180898  0.17549369     1.03300
O54         O  0.21354817  0.32509317  0.14695365    -0.84700
O55         O  0.19381417  0.32038548  0.08394290    -0.81700
C56         C  0.22827728  0.34325938  0.07128801     0.98800
O57         O  0.24649763  0.38147187  0.07548150    -0.81800
O58         O  0.26881232  0.45618216  0.10201122    -0.84400
C59         C  0.29027951  0.45928486  0.12576192     1.03300
O60         O  0.27387251  0.43640304  0.14934587    -0.77200
O61         O  0.21797990  0.36848438  0.18312980    -0.77300
C62         C  0.22371513  0.33965586  0.17424968     1.03300
Cr63       Cr  0.17068132  0.32970790  0.12369560     1.93700
Cr64       Cr  0.21585626  0.40993878  0.08647451     1.93200
Cr65       Cr  0.21425589  0.41165935  0.15845603     1.39100
O66         O  0.20029910  0.38389422  0.12288064    -1.22400
O67         O  0.87536715  0.68467977  0.41757254    -0.84700
O68         O  0.89494405  0.68353860  0.35559134    -0.81700
C69         C  0.89344987  0.66869387  0.32876945     0.98800
O70         O  0.85977393  0.64076209  0.31794951    -0.81700
O71         O  0.84220245  0.57233518  0.35259265    -0.84400
C72         C  0.83203948  0.54819897  0.37570001     1.03300
O73         O  0.80954305  0.54966429  0.39715382    -0.77200
O74         O  0.86199974  0.62186819  0.42685844    -0.77300
C75         C  0.88389405  0.65996905  0.43128381     1.03300
O76         O  0.79968226  0.67982353  0.39842308    -0.84700
O77         O  0.82298187  0.68528462  0.33625881    -0.81700
C78         C  0.79095192  0.66021171  0.32164442     0.98800
O79         O  0.77607642  0.62211332  0.32530190    -0.81800
O80         O  0.75729635  0.54992718  0.35490226    -0.84400
C81         C  0.73286908  0.54699449  0.37654863     1.03300
O82         O  0.74607408  0.57042741  0.40010989    -0.77200
O83         O  0.79698374  0.63892182  0.43612008    -0.77300
C84         C  0.78993469  0.66637245  0.42605753     1.03300
Cr85       Cr  0.84617542  0.67918903  0.37692263     1.93700
Cr86       Cr  0.80965891  0.59835488  0.34044367     1.93200
Cr87       Cr  0.80470068  0.59731083  0.41227800     1.39100
O88         O  0.82025998  0.62503048  0.37649403    -1.22400
O89         O  0.82273502  0.13783812  0.41543539    -0.84700
O90         O  0.80610287  0.12517895  0.35224837    -0.81700
C91         C  0.79545705  0.12953306  0.32512283     0.98800
O92         O  0.80236422  0.16443467  0.31607548    -0.81700
O93         O  0.74834795  0.17753490  0.35110644    -0.84400
C94         C  0.73243054  0.18544198  0.37421597     1.03300
O95         O  0.75436616  0.20528957  0.39736545    -0.77200
O96         O  0.77254354  0.15012497  0.42471891    -0.77300
C97         C  0.78852232  0.12782760  0.42819713     1.03300
O98         O  0.89427732  0.21546399  0.40066413    -0.84700
O99         O  0.88152974  0.19942451  0.33765672    -0.81700
C100        C  0.88956671  0.23305218  0.32479652     0.98800
O101        O  0.86563774  0.24709340  0.32865997    -0.81800
O102        O  0.80957826  0.26166390  0.35870782    -0.84400
C103        C  0.82994708  0.28426675  0.38136958     1.03300
O104        O  0.83833889  0.26900025  0.40468356    -0.77200
O105        O  0.85395242  0.21471038  0.43818796    -0.77300
C106        C  0.88905448  0.22320869  0.42847379     1.03300
Cr107      Cr  0.84906882  0.17141410  0.37653794     1.93700
Cr108      Cr  0.80749886  0.21156944  0.34142598     1.93200
Cr109      Cr  0.80602276  0.20901271  0.41347193     1.39100
O110        O  0.82094447  0.19735564  0.37713333    -1.22400
O111        O  0.32960611  0.13870926  0.33252095    -0.84700
O112        O  0.33664393  0.12027370  0.39386062    -0.81700
C113        C  0.35154891  0.12318368  0.42084327     0.98800
O114        O  0.37821829  0.15785458  0.43125341    -0.81700
O115        O  0.44617912  0.17819833  0.39531529    -0.84400
C116        C  0.46913926  0.18782423  0.37151788     1.03300
O117        O  0.46533340  0.20813078  0.34936209    -0.77200
O118        O  0.39230303  0.15406215  0.32100448    -0.77300
C119        C  0.35416273  0.13104200  0.31779897     1.03300
O120        O  0.33105606  0.21162635  0.35281659    -0.84700
O121        O  0.33021879  0.18907871  0.41459281    -0.81700
C122        C  0.35414049  0.22277186  0.42774014     0.98800
O123        O  0.39216625  0.24004615  0.42276063    -0.81800
O124        O  0.46447733  0.26173926  0.39219035    -0.84400
C125        C  0.46642631  0.28507713  0.37003254     1.03300
O126        O  0.44249454  0.27055407  0.34696512    -0.77200
O127        O  0.37272612  0.21814622  0.31436080    -0.77300
C128        C  0.34441457  0.22339645  0.32534793     1.03300
Cr129      Cr  0.33609893  0.16716694  0.37338303     1.93700
Cr130      Cr  0.41812983  0.20855688  0.40767531     1.93200
Cr131      Cr  0.41621936  0.21153910  0.33574561     1.39100
O132        O  0.39019311  0.19583932  0.37222312    -1.22400
C133        C  0.54009062  0.14703285  0.39303216    -0.27500
C134        C  0.57050753  0.16530915  0.36975415     0.06100
C135        C  0.56532182  0.18792867  0.34566353     0.25700
C136        C  0.53151242  0.19374429  0.34583467    -0.12000
C137        C  0.50224138  0.17743722  0.37008027    -0.26000
C138        C  0.50634179  0.15308493  0.39333844     0.36500
C139        C  0.60911148  0.16384887  0.37203675     0.06100
F140        F  0.59411443  0.20656408  0.32288655    -0.19700
H141        H  0.52915290  0.21239350  0.32751726     0.15900
F142        F  0.47831618  0.13574560  0.41678436    -0.23500
H143        H  0.54290290  0.12874347  0.41140524     0.17700
C144        C  0.63115960  0.17380685  0.40034790     0.25700
C145        C  0.67044214  0.17878008  0.40112939    -0.12000
C146        C  0.68866997  0.17406955  0.37375677    -0.26000
C147        C  0.66556958  0.16149226  0.34592198     0.36600
C148        C  0.62613387  0.15630509  0.34518980    -0.27600
F149        F  0.61603002  0.18147818  0.42686400    -0.19800
H150        H  0.68719411  0.18790522  0.42298167     0.15900
F151        F  0.68165724  0.15621498  0.31894692    -0.23500
H152        H  0.60941478  0.14770822  0.32333751     0.17700
C153        C  0.62049731  0.47503454  0.39623564    -0.27500
C154        C  0.60842927  0.44716977  0.37112806     0.06100
C155        C  0.63662332  0.45416095  0.34693803     0.25700
C156        C  0.67642628  0.48741701  0.34852180    -0.12000
C157        C  0.68926484  0.51431298  0.37434990    -0.26000
C158        C  0.66054196  0.50819116  0.39800701     0.36500
C159        C  0.56847323  0.40843226  0.37202911     0.06100
F160        F  0.62660078  0.42736955  0.32274467    -0.19700
H161        H  0.69764724  0.49119131  0.32987278     0.15900
F162        F  0.67129870  0.53331628  0.42332583    -0.23500
H163        H  0.59915931  0.47034615  0.41503571     0.17700
C164        C  0.55771771  0.38290594  0.39856424     0.25700
C165        C  0.52332390  0.34383822  0.39803185    -0.12000
C166        C  0.49890941  0.32892139  0.37099820    -0.26000
C167        C  0.50827276  0.35533821  0.34495272     0.36600
C168        C  0.54285230  0.39473021  0.34555099    -0.27600
F169        F  0.58208537  0.39451064  0.42431976    -0.19800
H170        H  0.51685374  0.32456080  0.41858532     0.15900
F171        F  0.48526922  0.34268946  0.31848643    -0.23500
H172        H  0.55036648  0.41413114  0.32495349     0.17700
C173        C  0.86938097  0.47474974  0.35300294    -0.22700
C174        C  0.85768180  0.44917485  0.37958058     0.06100
C175        C  0.84120210  0.45865531  0.40568777     0.25700
C176        C  0.83473579  0.49203069  0.40462733    -0.12000
C177        C  0.84418149  0.51639328  0.37740808    -0.26000
C178        C  0.86261075  0.50805280  0.35178927     0.36500
C179        C  0.85622836  0.40926107  0.37820614     0.06100
F180        F  0.82828084  0.43374365  0.43128156    -0.19700
H181        H  0.82068639  0.49770595  0.42476236     0.15900
F182        F  0.87204275  0.53049279  0.32495046    -0.23500
H183        H  0.88195731  0.46770239  0.33262207     0.17700
C184        C  0.83300051  0.38128129  0.35470472     0.25700
C185        C  0.82585305  0.34132656  0.35571306    -0.12000
C186        C  0.84144833  0.32808028  0.38026265    -0.26000
C187        C  0.86635990  0.35663787  0.40312357     0.36600
C188        C  0.87353190  0.39696457  0.40209555    -0.27600
F189        F  0.81479362  0.39171234  0.33183782    -0.19800
H190        H  0.80672814  0.32035186  0.33765052     0.15900
F191        F  0.88310595  0.34559967  0.42668901    -0.23500
H192        H  0.89163012  0.41828320  0.42033420     0.17700
C193        C  0.95708072  0.23620995  0.49736404    -0.27500
C194        C  0.99156356  0.27441893  0.49053660     0.06100
C195        C  0.99182651  0.29569900  0.46330190     0.25700
C196        C  0.95827023  0.27873947  0.44309658    -0.12000
C197        C  0.92380643  0.24082242  0.45009826    -0.26000
C198        C  0.92322031  0.21958787  0.47740484     0.36500
C199        C  0.02740364  0.29282845  0.01153324     0.06100
F200        F  0.02414193  0.33328825  0.45664503    -0.19700
H201        H  0.95889022  0.29543713  0.42218005     0.15900
F202        F  0.89049628  0.18230101  0.48420737    -0.23500
H203        H  0.95688614  0.22002488  0.01794115     0.17700
C204        C  0.02228429  0.29649394  0.04384611     0.25700
C205        C  0.05613052  0.31321198  0.06373705    -0.12000
C206        C  0.09557071  0.32695893  0.05165453    -0.26000
C207        C  0.10074105  0.32344383  0.01929636     0.36600
C208        C  0.06682334  0.30630424  0.99948279    -0.27600
F209        F  0.98469394  0.28477885  0.05604668    -0.19800
H210        H  0.05157518  0.31582682  0.08857099     0.15900
F211        F  0.13831849  0.33529785  0.00696106    -0.23500
H212        H  0.07092773  0.30226461  0.47489294     0.17700
C213        C  0.98888650  0.26063982  0.28197732    -0.27500
C214        C  0.99334537  0.29174372  0.26136297     0.06100
C215        C  0.96440655  0.30502248  0.26274546     0.25700
C216        C  0.93133428  0.28673582  0.28395271    -0.12000
C217        C  0.92629555  0.25469651  0.30400729    -0.26000
C218        C  0.95602118  0.24237271  0.30302670     0.36500
C219        C  0.02730977  0.30824643  0.23783791     0.06100
F220        F  0.96699608  0.33426719  0.24267047    -0.19700
H221        H  0.90901817  0.29689848  0.28403285     0.15900
F222        F  0.95339923  0.21239202  0.32228210    -0.23500
H223        H  0.01097286  0.25017525  0.28162893     0.17700
C224        C  0.05514929  0.35053969  0.23475127     0.25700
C225        C  0.08861287  0.36468786  0.21401060    -0.12000
C226        C  0.09517316  0.33700890  0.19609890    -0.26000
C227        C  0.06665151  0.29471383  0.19885018     0.36600
C228        C  0.03331834  0.28076137  0.21939545    -0.27600
F229        F  0.05115722  0.37805245  0.25281093    -0.19800
H230        H  0.10998662  0.39732334  0.21257213     0.15900
F231        F  0.07096201  0.26648451  0.18196580    -0.23500
H232        H  0.01219052  0.24807812  0.22116945     0.17700
C233        C  0.26468749  0.31903608  0.24910081    -0.27500
C234        C  0.27111242  0.28702577  0.23981253     0.06100
C235        C  0.26169466  0.27203445  0.20893635     0.25700
C236        C  0.24651250  0.28936623  0.18760488    -0.12000
C237        C  0.24053974  0.32191828  0.19672360    -0.26000
C238        C  0.24983224  0.33660082  0.22783167     0.36500
C239        C  0.28965558  0.27102430  0.26207439     0.06100
F240        F  0.26683998  0.24041089  0.19953571    -0.19700
H241        H  0.23940805  0.27724710  0.16396569     0.15900
F242        F  0.24488698  0.36811007  0.23785713    -0.23500
H243        H  0.27212119  0.33110559  0.27274667     0.17700
C244        C  0.32635967  0.27213642  0.25428817     0.25700
C245        C  0.34425181  0.25751620  0.27538414    -0.12000
C246        C  0.32600812  0.24151558  0.30474181    -0.26000
C247        C  0.28966385  0.24142587  0.31290711     0.36600
C248        C  0.27176702  0.25619809  0.29165813    -0.27600
F249        F  0.34536136  0.28813472  0.22646193    -0.19800
H250        H  0.37247217  0.25856803  0.26853483     0.15900
F251        F  0.27096588  0.22643437  0.34099397    -0.23500
H252        H  0.24363215  0.25561448  0.29810108     0.17700
C253        C  0.24140052  0.28162561  0.00690168    -0.27500
C254        C  0.28224420  0.29127649  0.01132936     0.06100
C255        C  0.30497022  0.31805903  0.03585217     0.25700
C256        C  0.28734572  0.33529455  0.05502317    -0.12000
C257        C  0.24651852  0.32520728  0.05072303    -0.26000
C258        C  0.22344584  0.29792018  0.02668355     0.36500
C259        C  0.30127507  0.27316140  0.49075193     0.06100
F260        F  0.34385983  0.32677036  0.04183554    -0.19700
H261        H  0.30532056  0.35589358  0.07372148     0.15900
F262        F  0.18399929  0.28808026  0.02168414    -0.23500
H263        H  0.22345006  0.26179078  0.98784892     0.17700
C264        C  0.28006807  0.23129137  0.48289054     0.25700
C265        C  0.29761820  0.21540381  0.46243768    -0.12000
C266        C  0.33687816  0.24061434  0.44972655    -0.26000
C267        C  0.35842843  0.28236325  0.45789801     0.36600
C268        C  0.34054287  0.29844526  0.47799084    -0.27600
F269        F  0.24197826  0.20610139  0.99463625    -0.19800
H270        H  0.28050292  0.18304223  0.45681619     0.15900
F271        F  0.39623364  0.30788709  0.44588910    -0.23500
H272        H  0.35720870  0.33092756  0.48318801     0.17700
C273        C  0.30571294  0.96197902  0.01262073    -0.27500
C274        C  0.28706777  0.98548650  0.00638454     0.06100
C275        C  0.25034581  0.97585464  0.02185467     0.25700
C276        C  0.23231699  0.94289395  0.04285917    -0.12000
C277        C  0.25037973  0.91864617  0.04880704    -0.26000
C278        C  0.28758680  0.92875883  0.03350573     0.36500
C279        C  0.30502549  0.01907226  0.48301692     0.06100
F280        F  0.23211435  0.99867930  0.01685513    -0.19700
H281        H  0.20394642  0.93621631  0.05431698     0.15900
F282        F  0.30632192  0.90637816  0.03830943    -0.23500
H283        H  0.33395366  0.96889064  0.00080430     0.17700
C284        C  0.34488115  0.05236272  0.48694961     0.25700
C285        C  0.36019099  0.08588582  0.46634118    -0.12000
C286        C  0.33632913  0.08640698  0.44116199    -0.26000
C287        C  0.29706386  0.05227240  0.43662490     0.36600
C288        C  0.28162690  0.01914646  0.45746708    -0.27600
F289        F  0.36838893  0.05404877  0.01170492    -0.19800
H290        H  0.39059744  0.11166259  0.47026489     0.15900
F291        F  0.27277838  0.05157495  0.41287281    -0.23500
H292        H  0.25098686  0.99360284  0.45390953     0.17700
C293        C  0.27923126  0.03433749  0.27459426    -0.27500
C294        C  0.30498029  0.02945548  0.25344796     0.06100
C295        C  0.34716391  0.05787789  0.25351354     0.25700
C296        C  0.36324996  0.09070497  0.27467974    -0.12000
C297        C  0.33744731  0.09566853  0.29599819    -0.26000
C298        C  0.29511245  0.06689237  0.29575140     0.36500
C299        C  0.28713466  0.99437309  0.23161005     0.06100
F300        F  0.37254381  0.05441180  0.23262017    -0.19700
H301        H  0.39578775  0.11249479  0.27410757     0.15900
F302        F  0.26885115  0.06980643  0.31608449    -0.23500
H303        H  0.24666908  0.01253246  0.27490169     0.17700
C304        C  0.29807752  0.96378851  0.23327543     0.25700
C305        C  0.27859046  0.92911224  0.21408991    -0.12000
C306        C  0.24849689  0.92485682  0.19260670    -0.26000
C307        C  0.23789139  0.95577439  0.19078199     0.36600
C308        C  0.25687168  0.99002700  0.21034534    -0.27600
F309        F  0.32660724  0.96685715  0.25417084    -0.19800
H310        H  0.28713135  0.90563530  0.21590564     0.15900
F311        F  0.20809926  0.95216886  0.17097018    -0.23500
H312        H  0.24776866  0.01313796  0.20908952     0.17700
C313        C  0.96890556  0.67733325  0.26594980    -0.27500
C314        C  0.99966178  0.71847265  0.26892844     0.06100
C315        C  0.99651595  0.74250928  0.29282499     0.25700
C316        C  0.96246628  0.72581901  0.31286282    -0.12000
C317        C  0.93082883  0.68506552  0.30913746    -0.26000
C318        C  0.93470681  0.66070017  0.28577940     0.36500
C319        C  0.03393337  0.73651851  0.24616156     0.06100
F320        F  0.02640292  0.78210221  0.29674869    -0.19700
H321        H  0.96032448  0.74510767  0.33075891     0.15900
F322        F  0.90556942  0.62075248  0.28216130    -0.23500
H323        H  0.97093070  0.65835079  0.24771951     0.17700
C324        C  0.05927920  0.71944436  0.24172761     0.25700
C325        C  0.09087623  0.73623907  0.21951140    -0.12000
C326        C  0.09764041  0.77020071  0.20115564    -0.26000
C327        C  0.07190206  0.78704577  0.20556093     0.36600
C328        C  0.04052135  0.77035820  0.22794986    -0.27600
F329        F  0.05392373  0.68699548  0.25928498    -0.19800
H330        H  0.11025025  0.72272858  0.21685344     0.15900
F331        F  0.07667429  0.81938553  0.18814876    -0.23500
H332        H  0.02084939  0.78351637  0.23078727     0.17700
C333        C  0.01782782  0.73877911  0.04606638    -0.27500
C334        C  0.02064387  0.72267222  0.01711466     0.06100
C335        C  0.05794005  0.72576167  0.00808248     0.25700
C336        C  0.09236642  0.74616603  0.02733436    -0.12000
C337        C  0.09000431  0.76332866  0.05609296    -0.26000
C338        C  0.05192793  0.75847290  0.06563545     0.36500
C339        C  0.98542240  0.70637564  0.49541887     0.06100
F340        F  0.06120394  0.71077461  0.48007902    -0.19700
H341        H  0.12102344  0.74893052  0.01951486     0.15900
F342        F  0.04763810  0.77345337  0.09350686    -0.23500
H343        H  0.98916272  0.73647020  0.05333647     0.17700
C344        C  0.96486643  0.66482578  0.48692595     0.25700
C345        C  0.93175899  0.64975831  0.46614315    -0.12000
C346        C  0.91886701  0.67600575  0.45341048    -0.26000
C347        C  0.93960043  0.71766385  0.46229739     0.36600
C348        C  0.97239715  0.73247292  0.48315209    -0.27600
F349        F  0.97683652  0.63831875  0.99867558    -0.19800
H350        H  0.91630882  0.61757254  0.45995643     0.15900
F351        F  0.92813107  0.74423096  0.45115186    -0.23500
H352        H  0.98797144  0.76458925  0.48960617     0.17700
C353        C  0.17296626  0.62679117  0.08952600    -0.27500
C354        C  0.17205068  0.60640452  0.11744401     0.06100
C355        C  0.17047647  0.62390716  0.14631970     0.25700
C356        C  0.17367584  0.66254145  0.14723972    -0.12000
C357        C  0.17715593  0.68408094  0.11942641    -0.26000
C358        C  0.17492942  0.66498218  0.09041611     0.36500
C359        C  0.17726127  0.56961860  0.11673970     0.06100
F360        F  0.16681217  0.60404901  0.17381141    -0.19700
H361        H  0.17426627  0.67600984  0.16983730     0.15900
F362        F  0.17731509  0.68425002  0.06287104    -0.23500
H363        H  0.17432652  0.61424519  0.06697931     0.17700
C364        C  0.15590569  0.53696273  0.09553839     0.25700
C365        C  0.16249185  0.50331593  0.09545099    -0.12000
C366        C  0.19010382  0.50145327  0.11664377    -0.26000
C367        C  0.21172903  0.53447428  0.13745017     0.36600
C368        C  0.20557127  0.56801950  0.13719026    -0.27600
F369        F  0.12802519  0.53703306  0.07547223    -0.19800
H370        H  0.14548417  0.47840826  0.07916506     0.15900
F371        F  0.23963314  0.53498234  0.15783030    -0.23500
H372        H  0.22360722  0.59327225  0.15294530     0.17700
C373        C  0.68700000  0.95556319  0.24772793    -0.27500
C374        C  0.72092832  0.99285447  0.23847977     0.06100
C375        C  0.73802424  0.99593178  0.20853397     0.25700
C376        C  0.72178962  0.96191699  0.18847069    -0.12000
C377        C  0.68807350  0.92419333  0.19779593    -0.26000
C378        C  0.67043482  0.92166118  0.22763060     0.36500
C379        C  0.73924800  0.02777963  0.26070362     0.06100
F380        F  0.77135163  0.03141500  0.19914943    -0.19700
H381        H  0.73612849  0.96497652  0.16578769     0.15900
F382        F  0.63722844  0.88646887  0.23759670    -0.23500
H383        H  0.67328840  0.95272550  0.27066745     0.17700
C384        C  0.74231665  0.06556653  0.25315339     0.25700
C385        C  0.76026532  0.09832003  0.27429437    -0.12000
C386        C  0.77572004  0.09413327  0.30330132    -0.26000
C387        C  0.77236063  0.05608478  0.31081336     0.36600
C388        C  0.75406033  0.02328840  0.28976196    -0.27600
F389        F  0.72739462  0.07058838  0.22555301    -0.19800
H390        H  0.76206954  0.12704283  0.26787860     0.15900
F391        F  0.78735930  0.05061788  0.33821018    -0.23500
H392        H  0.75207677  0.99440680  0.29591280     0.17700
C393        C  0.70791503  0.03364711  0.47220205    -0.27500
C394        C  0.73230242  0.02089216  0.48822187     0.06100
C395        C  0.77511629  0.04361404  0.48401026     0.25700
C396        C  0.79280147  0.07777205  0.46413206    -0.12000
C397        C  0.76854188  0.09083709  0.44850455    -0.26000
C398        C  0.72577460  0.06850059  0.45282510     0.36500
C399        C  0.71366274  0.98424653  0.00944737     0.06100
F400        F  0.80058245  0.03354450  0.99975726    -0.19700
H401        H  0.82582224  0.09470654  0.46156091     0.15900
F402        F  0.70114129  0.07974333  0.43782221    -0.23500
H403        H  0.67488263  0.01640095  0.47446000     0.17700
C404        C  0.68252384  0.97777806  0.03108110     0.25700
C405        C  0.66581171  0.94361501  0.05117320    -0.12000
C406        C  0.68061715  0.91600769  0.05071944    -0.26000
C407        C  0.71143214  0.92220574  0.02907597     0.36600
C408        C  0.72724750  0.95555673  0.00839284    -0.27600
F409        F  0.66941400  0.00532416  0.03379260    -0.19800
H410        H  0.64233428  0.93952438  0.06788467     0.15900
F411        F  0.72580720  0.89555312  0.02757532    -0.23500
H412        H  0.75005743  0.95900608  0.49132457     0.17700
C413        C  0.72292499  0.72931859  0.04492108    -0.27500
C414        C  0.72497045  0.73803994  0.01258843     0.06100
C415        C  0.71045091  0.76391559  0.00198471     0.25700
C416        C  0.69356008  0.77979594  0.02318272    -0.12000
C417        C  0.69181505  0.77125541  0.05545607    -0.26000
C418        C  0.70709043  0.74620711  0.06623891     0.36500
C419        C  0.74222403  0.72039426  0.49010468     0.06100
F420        F  0.71477866  0.77611821  0.47141710    -0.19700
H421        H  0.68259361  0.79961158  0.01439940     0.15900
F422        F  0.70564564  0.73708785  0.09722649    -0.23500
H423        H  0.73314807  0.70893365  0.05371895     0.17700
C424        C  0.77814629  0.71921770  0.49714583     0.25700
C425        C  0.79298450  0.70095064  0.47630806    -0.12000
C426        C  0.77310936  0.68467103  0.44772292    -0.26000
C427        C  0.73769000  0.68622249  0.44030979     0.36600
C428        C  0.72212276  0.70350380  0.46151858    -0.27600
F429        F  0.79951738  0.73667509  0.02363722    -0.19800
H430        H  0.82065000  0.70032554  0.48215991     0.15900
F431        F  0.71749642  0.66984002  0.41307174    -0.23500
H432        H  0.69398444  0.70316978  0.45575536     0.17700
C433        C  0.77851455  0.72933486  0.26341600    -0.27500
C434        C  0.73583233  0.70935648  0.25932940     0.06100
C435        C  0.71137220  0.67173701  0.27500574     0.25700
C436        C  0.72941520  0.65518034  0.29460261    -0.12000
C437        C  0.77195267  0.67620174  0.29950522    -0.26000
C438        C  0.79634397  0.71340426  0.28355017     0.36500
C439        C  0.71749655  0.72856181  0.23922176     0.06100
F440        F  0.66995933  0.65175115  0.27244262    -0.19700
H441        H  0.70998550  0.62657962  0.30676919     0.15900
F442        F  0.83766122  0.73421399  0.28703239    -0.23500
H443        H  0.79831669  0.75756460  0.25097469     0.17700
C444        C  0.73173949  0.77102098  0.24101371     0.25700
C445        C  0.71554826  0.78922329  0.22146784    -0.12000
C446        C  0.68399615  0.76554712  0.20038428    -0.26000
C447        C  0.66920338  0.72311070  0.19868982     0.36600
C448        C  0.68615670  0.70493440  0.21770258    -0.27600
F449        F  0.76065408  0.79495169  0.26223681    -0.19800
H450        H  0.72713256  0.82191240  0.22328373     0.15900
F451        F  0.63945765  0.69952477  0.17788056    -0.23500
H452        H  0.67518262  0.67245022  0.21521481     0.17700
C453        C  0.38789017  0.83896882  0.10204611    -0.27500
C454        C  0.40463312  0.83627499  0.13074572     0.06100
C455        C  0.38324326  0.83266495  0.15875311     0.25700
C456        C  0.34503507  0.83042215  0.15778493    -0.12000
C457        C  0.32744336  0.83117720  0.12887731    -0.26000
C458        C  0.34961147  0.83626185  0.10102220     0.36500
C459        C  0.44268630  0.83395340  0.13079549     0.06100
F460        F  0.39810364  0.82882696  0.18678154    -0.19700
H461        H  0.32834948  0.82612964  0.17952566     0.15900
F462        F  0.33409787  0.83815103  0.07273750    -0.23500
H463        H  0.40416318  0.84221115  0.08025836     0.17700
C464        C  0.44511314  0.80436980  0.11230237     0.25700
C465        C  0.48067761  0.80179273  0.11207296    -0.12000
C466        C  0.51460804  0.82829908  0.13046799    -0.26000
C467        C  0.51237751  0.85811968  0.14897040     0.36600
C468        C  0.47653986  0.86081715  0.14910672    -0.27600
F469        F  0.41254691  0.77702773  0.09513931    -0.19800
H470        H  0.48121386  0.77815207  0.09789109     0.15900
F471        F  0.54486206  0.88496836  0.16639228    -0.23500
H472        H  0.47528186  0.88407246  0.16328337     0.17700
C473        C  0.48143076  0.61507318  0.10457351    -0.27500
C474        C  0.45206437  0.60262830  0.12877489     0.06100
C475        C  0.45800463  0.63044405  0.15294553     0.25700
C476        C  0.49170300  0.67014817  0.15222691    -0.12000
C477        C  0.52025193  0.68339565  0.12732386    -0.26000
C478        C  0.51510481  0.65504278  0.10369292     0.36500
C479        C  0.41326590  0.56257955  0.12705594     0.06100
F480        F  0.42990373  0.62016857  0.17629694    -0.19700
H481        H  0.49455791  0.69102870  0.17082671     0.15900
F482        F  0.54188817  0.66604097  0.07934609    -0.23500
H483        H  0.47767593  0.59404426  0.08582590     0.17700
C484        C  0.38936056  0.55200245  0.09972794     0.25700
C485        C  0.35046460  0.51726030  0.09922912    -0.12000
C486        C  0.33407155  0.49218295  0.12596761    -0.26000
C487        C  0.35887340  0.50143954  0.15286522     0.36600
C488        C  0.39803971  0.53642358  0.15334101    -0.27600
F489        F  0.40239432  0.57677472  0.07407157    -0.19800
H490        H  0.33246442  0.51102472  0.07805112     0.15900
F491        F  0.34490015  0.47771694  0.17903498    -0.23500
H492        H  0.41614202  0.54368747  0.17455560     0.17700
O493        O  0.69052374  0.87392310  0.58675225    -0.84700
O494        O  0.68742928  0.89137084  0.64944733    -0.81700
C495        C  0.67283800  0.88822470  0.67670220     0.98800
O496        O  0.64564669  0.85350264  0.68685994    -0.81700
O497        O  0.57559322  0.83443892  0.65294248    -0.84400
C498        C  0.55098199  0.82305003  0.63013765     1.03300
O499        O  0.55519846  0.80380393  0.60745564    -0.77200
O500        O  0.62725319  0.85930347  0.57802991    -0.77300
C501        C  0.66522907  0.88169538  0.57325500     1.03300
O502        O  0.68794945  0.79904622  0.60485767    -0.84700
O503        O  0.69212017  0.82010555  0.66743730    -0.81700
C504        C  0.66765491  0.78620772  0.68035152     0.98800
O505        O  0.62954597  0.77059878  0.67684556    -0.81800
O506        O  0.55667612  0.75075286  0.64870783    -0.84400
C507        C  0.55383781  0.72739986  0.62629756     1.03300
O508        O  0.57755292  0.74190797  0.60282798    -0.77200
O509        O  0.64632056  0.79548720  0.56762676    -0.77300
C510        C  0.67426661  0.78900349  0.57734327     1.03300
Cr511      Cr  0.68530603  0.84398731  0.62717709     1.93700
Cr512      Cr  0.60412341  0.80348090  0.66362120     1.93200
Cr513      Cr  0.60375468  0.80130848  0.59173907     1.39100
O514        O  0.63106748  0.81639055  0.62752017    -1.22400
O515        O  0.21651657  0.89096916  0.64518460    -0.84700
O516        O  0.19566423  0.87344527  0.58296427    -0.81700
C517        C  0.22954453  0.88231606  0.57018264     0.98800
O518        O  0.24506694  0.85997773  0.57515996    -0.81700
O519        O  0.26299082  0.80553248  0.60385009    -0.84400
C520        C  0.28485172  0.82311114  0.62761519     1.03300
O521        O  0.27004923  0.83194383  0.65085808    -0.77200
O522        O  0.22073906  0.85356154  0.68308895    -0.77300
C523        C  0.22797373  0.88807856  0.67237137     1.03300
O524        O  0.14129008  0.82122514  0.66445262    -0.84700
O525        O  0.12422396  0.79829009  0.60264281    -0.81700
C526        C  0.12699369  0.78623495  0.57564363     0.98800
O527        O  0.16173356  0.79473094  0.56477470    -0.81800
O528        O  0.17902318  0.74298011  0.59789317    -0.84400
C529        C  0.18660087  0.72717477  0.62113206     1.03300
O530        O  0.20436619  0.74866941  0.64513087    -0.77200
O531        O  0.15309427  0.77097331  0.67365036    -0.77300
C532        C  0.13196831  0.78789639  0.67825407     1.03300
Cr533      Cr  0.17145129  0.84381540  0.62376471     1.93700
Cr534      Cr  0.21124641  0.80205916  0.58819548     1.93200
Cr535      Cr  0.21094699  0.80234603  0.66040514     1.39100
O536        O  0.19811123  0.81612859  0.62419187    -1.22400
O537        O  0.14060414  0.32606103  0.66330083    -0.84700
O538        O  0.12602385  0.33037549  0.60083584    -0.81700
C539        C  0.13089450  0.34323274  0.57298227     0.98800
O540        O  0.16616594  0.36892026  0.56277920    -0.81700
O541        O  0.18727328  0.44130879  0.59429870    -0.84400
C542        C  0.19703294  0.46571369  0.61721720     1.03300
O543        O  0.21402134  0.46081871  0.64108888    -0.77200
O544        O  0.15612461  0.38967366  0.67070342    -0.77300
C545        C  0.13234740  0.35180256  0.67538871     1.03300
O546        O  0.21399169  0.32525787  0.64686072    -0.84700
O547        O  0.19399513  0.32028271  0.58386931    -0.81700
C548        C  0.22842140  0.34310989  0.57116817     0.98800
O549        O  0.24663033  0.38134245  0.57524398    -0.81800
O550        O  0.26914046  0.45617021  0.60168486    -0.84400
C551        C  0.29058830  0.45940153  0.62549378     1.03300
O552        O  0.27415977  0.43656419  0.64910380    -0.77200
O553        O  0.21829851  0.36868006  0.68295951    -0.77300
C554        C  0.22403729  0.33983382  0.67416500     1.03300
Cr555      Cr  0.17101708  0.32971403  0.62362808     1.93700
Cr556      Cr  0.21605479  0.40986735  0.58624625     1.93200
Cr557      Cr  0.21452835  0.41174601  0.65823672     1.39100
O558        O  0.20057727  0.38391052  0.62270093    -1.22400
O559        O  0.87547607  0.68433238  0.91757692    -0.84700
O560        O  0.89492434  0.68303816  0.85554591    -0.81700
C561        C  0.89331739  0.66815822  0.82871460     0.98800
O562        O  0.85955559  0.64039095  0.81789861    -0.81700
O563        O  0.84184421  0.57190608  0.85254547    -0.84400
C564        C  0.83169440  0.54784649  0.87570890     1.03300
O565        O  0.80922063  0.54937620  0.89714250    -0.77200
O566        O  0.86182465  0.62144682  0.92691785    -0.77300
C567        C  0.88385740  0.65953642  0.93132703     1.03300
O568        O  0.79990385  0.67980911  0.89847379    -0.84700
O569        O  0.82308604  0.68516218  0.83628950    -0.81700
C570        C  0.79092587  0.66018083  0.82176100     0.98800
O571        O  0.77595552  0.62205819  0.82538822    -0.81800
O572        O  0.75706168  0.54974774  0.85489642    -0.84400
C573        C  0.73268184  0.54677829  0.87658457     1.03300
O574        O  0.74590402  0.57025936  0.90011882    -0.77200
O575        O  0.79691833  0.63871339  0.93612387    -0.77300
C576        C  0.78998138  0.66623782  0.92606695     1.03300
Cr577      Cr  0.84627218  0.67894305  0.87693268     1.93700
Cr578      Cr  0.80943357  0.59810528  0.84043894     1.93200
Cr579      Cr  0.80453115  0.59705523  0.91228793     1.39100
O580        O  0.82015896  0.62477821  0.87650444    -1.22400
O581        O  0.82305913  0.13801049  0.91556363    -0.84700
O582        O  0.80633513  0.12522448  0.85234836    -0.81700
C583        C  0.79576188  0.12963145  0.82520752     0.98800
O584        O  0.80251123  0.16449714  0.81620077    -0.81700
O585        O  0.74845096  0.17773572  0.85108590    -0.84400
C586        C  0.73248880  0.18555055  0.87422314     1.03300
O587        O  0.75437026  0.20519320  0.89745590    -0.77200
O588        O  0.77267292  0.15002513  0.92470998    -0.77300
C589        C  0.78879836  0.12787761  0.92829415     1.03300
O590        O  0.89441636  0.21574311  0.90058960    -0.84700
O591        O  0.88163161  0.19937310  0.83764631    -0.81700
C592        C  0.88972594  0.23299866  0.82476782     0.98800
O593        O  0.86587535  0.24713000  0.82869330    -0.81800
O594        O  0.80983189  0.26176916  0.85878314    -0.84400
C595        C  0.82997903  0.28424098  0.88157003     1.03300
O596        O  0.83829159  0.26890675  0.90486970    -0.77200
O597        O  0.85404507  0.21470715  0.93818719    -0.77300
C598        C  0.88919540  0.22347913  0.92839632     1.03300
Cr599      Cr  0.84925354  0.17151825  0.87658859     1.93700
Cr600      Cr  0.80767694  0.21166693  0.84147594     1.93200
Cr601      Cr  0.80605805  0.20892944  0.91353203     1.39100
O602        O  0.82104211  0.19737770  0.87717635    -1.22400
O603        O  0.32940580  0.13842041  0.83238443    -0.84700
O604        O  0.33639654  0.12007161  0.89373951    -0.81700
C605        C  0.35129491  0.12307839  0.92073199     0.98800
O606        O  0.37782788  0.15779881  0.93114282    -0.81700
O607        O  0.44591053  0.17814807  0.89530705    -0.84400
C608        C  0.46892380  0.18781340  0.87152915     1.03300
O609        O  0.46510012  0.20808580  0.84934800    -0.77200
O610        O  0.39218808  0.15402217  0.82084952    -0.77300
C611        C  0.35406545  0.13088007  0.81766695     1.03300
O612        O  0.33072055  0.21133096  0.85271202    -0.84700
O613        O  0.32978785  0.18886956  0.91443951    -0.81700
C614        C  0.35365870  0.22267632  0.92748104     0.98800
O615        O  0.39169597  0.23992667  0.92254362    -0.81800
O616        O  0.46409755  0.26159318  0.89213330    -0.84400
C617        C  0.46605574  0.28492912  0.86998259     1.03300
O618        O  0.44212130  0.27042595  0.84692100    -0.77200
O619        O  0.37245241  0.21799933  0.81426411    -0.77300
C620        C  0.34416422  0.22325584  0.82529600     1.03300
Cr621      Cr  0.33578413  0.16690904  0.87324686     1.93700
Cr622      Cr  0.41775104  0.20845133  0.90758564     1.93200
Cr623      Cr  0.41596488  0.21144199  0.83566301     1.39100
O624        O  0.38987771  0.19565928  0.87211244    -1.22400
C625        C  0.54009028  0.14725718  0.89311778    -0.27500
C626        C  0.57044502  0.16544114  0.86977529     0.06100
C627        C  0.56513827  0.18793075  0.84563911     0.25700
C628        C  0.53130199  0.19371565  0.84582550    -0.12000
C629        C  0.50209802  0.17750078  0.87012495    -0.26000
C630        C  0.50631517  0.15328416  0.89343941     0.36500
C631        C  0.60910774  0.16403340  0.87203191     0.06100
F632        F  0.59383590  0.20647092  0.82278641    -0.19700
H633        H  0.52886059  0.21225939  0.82746037     0.15900
F634        F  0.47837692  0.13605304  0.91695393    -0.23500
H635        H  0.54296521  0.12905240  0.91152867     0.17700
C636        C  0.63117778  0.17398444  0.90033613     0.25700
C637        C  0.67047507  0.17896689  0.90110898    -0.12000
C638        C  0.68872157  0.17426629  0.87373754    -0.26000
C639        C  0.66561637  0.16173243  0.84590028     0.36600
C640        C  0.62616174  0.15653175  0.84517648    -0.27600
F641        F  0.61604624  0.18161936  0.92686712    -0.19800
H642        H  0.68721594  0.18806830  0.92296612     0.15900
F643        F  0.68170474  0.15647362  0.81891928    -0.23500
H644        H  0.60944317  0.14792976  0.82332447     0.17700
C645        C  0.62046089  0.47447911  0.89643940    -0.27500
C646        C  0.60834685  0.44676211  0.87122600     0.06100
C647        C  0.63649941  0.45391705  0.84696051     0.25700
C648        C  0.67626106  0.48723157  0.84853736    -0.12000
C649        C  0.68912532  0.51399514  0.87444776    -0.26000
C650        C  0.66049296  0.50763375  0.89823620     0.36500
C651        C  0.56833769  0.40807263  0.87203785     0.06100
F652        F  0.62648436  0.42726280  0.82267093    -0.19700
H653        H  0.69743139  0.49116495  0.82980206     0.15900
F654        F  0.67133092  0.53251348  0.92370568    -0.23500
H655        H  0.59916613  0.46969362  0.91529643     0.17700
C656        C  0.55725032  0.38264171  0.89865354     0.25700
C657        C  0.52272706  0.34367911  0.89810155    -0.12000
C658        C  0.49857473  0.32872652  0.87094824    -0.26000
C659        C  0.50830564  0.35500610  0.84478360     0.36600
C660        C  0.54294265  0.39434300  0.84543115    -0.27600
F661        F  0.58141069  0.39419558  0.92452437    -0.19800
H662        H  0.51597316  0.32448089  0.91873669     0.15900
F663        F  0.48565135  0.34224062  0.81815111    -0.23500
H664        H  0.55068736  0.41366210  0.82476801     0.17700
C665        C  0.86962139  0.47470667  0.85357044    -0.22700
C666        C  0.85752671  0.44901419  0.88008792     0.06100
C667        C  0.84051487  0.45824917  0.90596801     0.25700
C668        C  0.83397066  0.49155637  0.90474678    -0.12000
C669        C  0.84384146  0.51606641  0.87757184    -0.26000
C670        C  0.86275208  0.50793375  0.85218192     0.36500
C671        C  0.85601514  0.40910747  0.87873817     0.06100
F672        F  0.82713200  0.43313662  0.93144150    -0.19700
H673        H  0.81951933  0.49704719  0.92470646     0.15900
F674        F  0.87257882  0.53050295  0.82539141    -0.23500
H675        H  0.88253773  0.46776939  0.83334437     0.17700
C676        C  0.83268032  0.38115707  0.85526910     0.25700
C677        C  0.82559510  0.34123783  0.85618013    -0.12000
C678        C  0.84131967  0.32799181  0.88062926    -0.26000
C679        C  0.86618045  0.35647461  0.90355508     0.36600
C680        C  0.87332132  0.39678966  0.90260420    -0.27600
F681        F  0.81432616  0.39160109  0.83253014    -0.19800
H682        H  0.80642542  0.32029134  0.83812098     0.15900
F683        F  0.88291041  0.34537630  0.92709629    -0.23500
H684        H  0.89140320  0.41807926  0.92086415     0.17700
C685        C  0.95735371  0.23698781  0.99723093    -0.27500
C686        C  0.99182110  0.27514627  0.99026507     0.06100
C687        C  0.99205499  0.29624143  0.96292703     0.25700
C688        C  0.95845029  0.27914201  0.94277152    -0.12000
C689        C  0.92398926  0.24129138  0.94994437    -0.26000
C690        C  0.92344801  0.22025397  0.97734197     0.36500
C691        C  0.02718266  0.29198972  0.51178844     0.06100
F692        F  0.02436661  0.33377770  0.95612706    -0.19700
H693        H  0.95902486  0.29567801  0.92176883     0.15900
F694        F  0.89071357  0.18304012  0.98430296    -0.23500
H695        H  0.95657938  0.21911452  0.51800116     0.17700
C696        C  0.02217530  0.29570836  0.54411280     0.25700
C697        C  0.05612607  0.31263992  0.56391381    -0.12000
C698        C  0.09555157  0.32650449  0.55173560    -0.26000
C699        C  0.10058497  0.32280656  0.51938715     0.36600
C700        C  0.06657713  0.30549759  0.49966228    -0.27600
F701        F  0.98460700  0.28388874  0.55640534    -0.19800
H702        H  0.05166242  0.31533603  0.58875232     0.15900
F703        F  0.13812492  0.33466127  0.50697709    -0.23500
H704        H  0.07125785  0.30312965  0.97471874     0.17700
C705        C  0.98885385  0.26016422  0.78173784    -0.27500
C706        C  0.99354001  0.29147880  0.76125209     0.06100
C707        C  0.96475887  0.30496323  0.76275565     0.25700
C708        C  0.93167321  0.28672622  0.78396596    -0.12000
C709        C  0.92643695  0.25452207  0.80391322    -0.26000
C710        C  0.95596565  0.24193563  0.80277993     0.36500
C711        C  0.02759110  0.30802805  0.73776242     0.06100
F712        F  0.96751428  0.33439023  0.74280341    -0.19700
H713        H  0.90951058  0.29708466  0.78414638     0.15900
F714        F  0.95314339  0.21174267  0.82188846    -0.23500
H715        H  0.01079576  0.24951808  0.78131502     0.17700
C716        C  0.05533347  0.35034656  0.73460582     0.25700
C717        C  0.08879449  0.36455341  0.71385167    -0.12000
C718        C  0.09550377  0.33692248  0.69601702    -0.26000
C719        C  0.06713549  0.29459330  0.69887405     0.36600
C720        C  0.03376924  0.28058207  0.71940075    -0.27600
F721        F  0.05127111  0.37785116  0.75261843    -0.19800
H722        H  0.11006120  0.39720821  0.71234954     0.15900
F723        F  0.07162707  0.26638398  0.68211334    -0.23500
H724        H  0.01274564  0.24788092  0.72121498     0.17700
C725        C  0.26440267  0.31920688  0.74930785    -0.27500
C726        C  0.27100183  0.28728318  0.74010569     0.06100
C727        C  0.26173076  0.27223427  0.70923894     0.25700
C728        C  0.24669891  0.28954640  0.68777739    -0.12000
C729        C  0.24065899  0.32208333  0.69677860    -0.26000
C730        C  0.24962794  0.33671093  0.72792132     0.36500
C731        C  0.28965021  0.27145281  0.76239584     0.06100
F732        F  0.26692231  0.24059477  0.69996563    -0.19700
H733        H  0.23977258  0.27743146  0.66413116     0.15900
F734        F  0.24444676  0.36810841  0.73786617    -0.23500
H735        H  0.27166493  0.33127523  0.77296229     0.17700
C736        C  0.32626998  0.27244938  0.75450515     0.25700
C737        C  0.34408808  0.25763102  0.77547801    -0.12000
C738        C  0.32588185  0.24160596  0.80483147    -0.26000
C739        C  0.28971819  0.24178895  0.81316331     0.36600
C740        C  0.27186607  0.25671722  0.79201792    -0.27600
F741        F  0.34522446  0.28846096  0.72666674    -0.19800
H742        H  0.37220302  0.25852704  0.76852857     0.15900
F743        F  0.27113862  0.22689355  0.84130323    -0.23500
H744        H  0.24381938  0.25626221  0.79854997     0.17700
C745        C  0.24153326  0.28080357  0.50736230    -0.27500
C746        C  0.28244905  0.29071112  0.51178757     0.06100
C747        C  0.30518495  0.31779417  0.53614834     0.25700
C748        C  0.28754499  0.33520018  0.55509983    -0.12000
C749        C  0.24667772  0.32493894  0.55076952    -0.26000
C750        C  0.22354833  0.29724373  0.52695711     0.36500
C751        C  0.30092974  0.27361782  0.99021868     0.06100
F752        F  0.34411270  0.32665747  0.54217134    -0.19700
H753        H  0.30553584  0.35606063  0.57366430     0.15900
F754        F  0.18402008  0.28713935  0.52199032    -0.23500
H755        H  0.22356651  0.26069000  0.48844011     0.17700
C756        C  0.27947072  0.23179655  0.98219919     0.25700
C757        C  0.29692242  0.21574835  0.96178479    -0.12000
C758        C  0.33636564  0.24071906  0.94929650    -0.26000
C759        C  0.35814314  0.28243019  0.95759783     0.36600
C760        C  0.34034329  0.29868694  0.97762395    -0.27600
F761        F  0.24270675  0.20542952  0.49545777    -0.19800
H762        H  0.27960734  0.18342742  0.95606662     0.15900
F763        F  0.39615156  0.30774692  0.94584033    -0.23500
H764        H  0.35722797  0.33112988  0.98293939     0.17700
C765        C  0.30558112  0.96165108  0.51253080    -0.27500
C766        C  0.28673916  0.98492625  0.50604633     0.06100
C767        C  0.24972632  0.97493303  0.52121896     0.25700
C768        C  0.23170103  0.94196830  0.54222150    -0.12000
C769        C  0.25002892  0.91804071  0.54847750    -0.26000
C770        C  0.28744794  0.92841495  0.53341505     0.36500
C771        C  0.30520461  0.01943305  0.98322986     0.06100
F772        F  0.23122007  0.99744986  0.51598119    -0.19700
H773        H  0.20313710  0.93506059  0.55346143     0.15900
F774        F  0.30643384  0.90632860  0.53850513    -0.23500
H775        H  0.33401840  0.96878329  0.50093796     0.17700
C776        C  0.34495320  0.05287985  0.98713449     0.25700
C777        C  0.36013898  0.08621703  0.96637633    -0.12000
C778        C  0.33624520  0.08639083  0.94109272    -0.26000
C779        C  0.29710459  0.05206606  0.93656295     0.36600
C780        C  0.28177690  0.01912296  0.95757044    -0.27600
F781        F  0.36832468  0.05319735  0.51140173    -0.19800
H782        H  0.39045898  0.11214398  0.97028474     0.15900
F783        F  0.27283159  0.05101434  0.91266992    -0.23500
H784        H  0.25120788  0.99343139  0.95406485     0.17700
C785        C  0.27959838  0.03318621  0.77532495    -0.27500
C786        C  0.30503551  0.02964311  0.75306751     0.06100
C787        C  0.34687568  0.05909662  0.75218047     0.25700
C788        C  0.36297449  0.09180016  0.77346313    -0.12000
C789        C  0.33748646  0.09552451  0.79586213    -0.26000
C790        C  0.29551623  0.06558056  0.79665090     0.36500
C791        C  0.28736270  0.99463535  0.73123949     0.06100
F792        F  0.37186894  0.05660478  0.73035411    -0.19700
H793        H  0.39522597  0.11446694  0.77213750     0.15900
F794        F  0.26973805  0.06716136  0.81823348    -0.23500
H795        H  0.24732125  0.01047013  0.77636544     0.17700
C796        C  0.29612968  0.96269624  0.73452522     0.25700
C797        C  0.27665461  0.92801464  0.71535269    -0.12000
C798        C  0.24875092  0.92508088  0.69226006    -0.26000
C799        C  0.24051957  0.95753409  0.68874155     0.36600
C800        C  0.25942621  0.99178864  0.70834077    -0.27600
F801        F  0.32260933  0.96459702  0.75689356    -0.19800
H802        H  0.28349403  0.90348434  0.71847119     0.15900
F803        F  0.21313177  0.95555904  0.66716261    -0.23500
H804        H  0.25206610  0.01605108  0.70584248     0.17700
C805        C  0.96857106  0.67622966  0.76589631    -0.27500
C806        C  0.99928546  0.71742738  0.76862923     0.06100
C807        C  0.99622835  0.74164065  0.79242296     0.25700
C808        C  0.96228693  0.72510310  0.81256271    -0.12000
C809        C  0.93065353  0.68431926  0.80904917    -0.26000
C810        C  0.93446038  0.65974556  0.78583080     0.36500
C811        C  0.03342000  0.73540861  0.74572702     0.06100
F812        F  0.02608935  0.78128715  0.79612698    -0.19700
H813        H  0.96020143  0.74454411  0.83035131     0.15900
F814        F  0.90532511  0.61975344  0.78244301    -0.23500
H815        H  0.97053726  0.65709842  0.74776524     0.17700
C816        C  0.05897756  0.71856320  0.74136402     0.25700
C817        C  0.09070091  0.73559434  0.71925097    -0.12000
C818        C  0.09738714  0.76956891  0.70093121    -0.26000
C819        C  0.07133741  0.78607115  0.70517834     0.36600
C820        C  0.03983506  0.76915509  0.72746275    -0.27600
F821        F  0.05377620  0.68618524  0.75894197    -0.19800
H822        H  0.11027223  0.72229469  0.71667871     0.15900
F823        F  0.07595611  0.81832532  0.68773338    -0.23500
H824        H  0.01998804  0.78212243  0.73022893     0.17700
C825        C  0.01779511  0.73943455  0.54597291    -0.27500
C826        C  0.02056453  0.72325040  0.51704949     0.06100
C827        C  0.05774163  0.72604655  0.50807144     0.25700
C828        C  0.09210477  0.74614879  0.52739610    -0.12000
C829        C  0.08979712  0.76333640  0.55615111    -0.26000
C830        C  0.05184684  0.75887156  0.56560541     0.36500
C831        C  0.98546853  0.70577195  0.99546930     0.06100
F832        F  0.06145535  0.71050562  0.98009891    -0.19700
H833        H  0.12067651  0.74866464  0.51963377     0.15900
F834        F  0.04764733  0.77399311  0.59343927    -0.23500
H835        H  0.98920973  0.73735749  0.55317817     0.17700
C836        C  0.96510016  0.66430422  0.98671595     0.25700
C837        C  0.93194798  0.64927476  0.96595200    -0.12000
C838        C  0.91884264  0.67548236  0.95347001    -0.26000
C839        C  0.93939907  0.71704554  0.96260503     0.36600
C840        C  0.97220712  0.73180439  0.98345316    -0.27600
F841        F  0.97638358  0.63880511  0.49916208    -0.19800
H842        H  0.91664718  0.61715913  0.95956448     0.15900
F843        F  0.92773113  0.74357036  0.95171471    -0.23500
H844        H  0.98761675  0.76385213  0.99009453     0.17700
C845        C  0.17336102  0.62686369  0.58957284    -0.27500
C846        C  0.17237777  0.60638877  0.61745209     0.06100
C847        C  0.17070632  0.62377389  0.64636422     0.25700
C848        C  0.17381717  0.66236990  0.64735017    -0.12000
C849        C  0.17729617  0.68395997  0.61956781    -0.26000
C850        C  0.17523339  0.66499692  0.59052758     0.36500
C851        C  0.17761204  0.56963043  0.61665731     0.06100
F852        F  0.16702404  0.60384060  0.67382187    -0.19700
H853        H  0.17432179  0.67576210  0.66996460     0.15900
F854        F  0.17772665  0.68436725  0.56301344    -0.23500
H855        H  0.17485070  0.61443978  0.56700476     0.17700
C856        C  0.15642605  0.53713548  0.59529103     0.25700
C857        C  0.16301147  0.50349611  0.59513181    -0.12000
C858        C  0.19046949  0.50149870  0.61639909    -0.26000
C859        C  0.21198365  0.53439505  0.63733371     0.36600
C860        C  0.20581133  0.56792225  0.63715835    -0.27600
F861        F  0.12871468  0.53735292  0.57512223    -0.19800
H862        H  0.14611907  0.47869846  0.57873432     0.15900
F863        F  0.23978306  0.53479594  0.65777148    -0.23500
H864        H  0.22375463  0.59307589  0.65301713     0.17700
C865        C  0.68817805  0.95632998  0.74749329    -0.27500
C866        C  0.72212051  0.99352697  0.73814248     0.06100
C867        C  0.73893967  0.99656845  0.70809301     0.25700
C868        C  0.72245791  0.96252004  0.68805293    -0.12000
C869        C  0.68874397  0.92485261  0.69751077    -0.26000
C870        C  0.67134001  0.92243300  0.72741818     0.36500
C871        C  0.74057776  0.02840730  0.76035923     0.06100
F872        F  0.77218876  0.03203833  0.69857546    -0.19700
H873        H  0.73658641  0.96550624  0.66528765     0.15900
F874        F  0.63810259  0.88734469  0.73748809    -0.23500
H875        H  0.67465352  0.95356794  0.77050001     0.17700
C876        C  0.74308915  0.06600216  0.75306665     0.25700
C877        C  0.76071069  0.09857538  0.77436180    -0.12000
C878        C  0.77636792  0.09438205  0.80326645    -0.26000
C879        C  0.77363547  0.05654237  0.81050395     0.36600
C880        C  0.75568103  0.02392166  0.78928460    -0.27600
F881        F  0.72784954  0.07096936  0.72560743    -0.19800
H882        H  0.76205675  0.12715087  0.76816131     0.15900
F883        F  0.78886727  0.05111373  0.83779727    -0.23500
H884        H  0.75408210  0.99515702  0.79523155     0.17700
C885        C  0.70833714  0.03390370  0.97257027    -0.27500
C886        C  0.73271052  0.02100225  0.98842932     0.06100
C887        C  0.77550810  0.04358368  0.98403648     0.25700
C888        C  0.79316497  0.07773110  0.96412991    -0.12000
C889        C  0.76889990  0.09092431  0.94866060    -0.26000
C890        C  0.72616805  0.06874975  0.95319750     0.36500
C891        C  0.71330356  0.98415437  0.50924059     0.06100
F892        F  0.80017230  0.03369838  0.49989391    -0.19700
H893        H  0.82616788  0.09454788  0.96140814     0.15900
F894        F  0.70151821  0.08015223  0.93841983    -0.23500
H895        H  0.67531660  0.01677425  0.97494591     0.17700
C896        C  0.68220501  0.97767702  0.53090947     0.25700
C897        C  0.66570017  0.94362537  0.55111027    -0.12000
C898        C  0.68065960  0.91613798  0.55070131    -0.26000
C899        C  0.71141593  0.92233818  0.52900328     0.36600
C900        C  0.72703012  0.95557689  0.50822703    -0.27600
F901        F  0.66894221  0.00511083  0.53354116    -0.19800
H902        H  0.64224350  0.93951459  0.56785024     0.15900
F903        F  0.72592128  0.89579157  0.52753374    -0.23500
H904        H  0.75028755  0.95895572  0.99151538     0.17700
C905        C  0.72287014  0.72939027  0.54484112    -0.27500
C906        C  0.72533525  0.73855036  0.51257002     0.06100
C907        C  0.71121064  0.76478483  0.50205536     0.25700
C908        C  0.69425569  0.78057035  0.52327905    -0.12000
C909        C  0.69206357  0.77156353  0.55549181    -0.26000
C910        C  0.70697436  0.74617601  0.56619325     0.36500
C911        C  0.74189599  0.71986905  0.99015361     0.06100
F912        F  0.71358437  0.77483525  0.97127302    -0.19700
H913        H  0.68358197  0.80066190  0.51457476     0.15900
F914        F  0.70509577  0.73662152  0.59712119    -0.23500
H915        H  0.73280365  0.70873624  0.55355415     0.17700
C916        C  0.77800742  0.71901035  0.99711418     0.25700
C917        C  0.79297480  0.70089061  0.97625186    -0.12000
C918        C  0.77304908  0.68444721  0.94771600    -0.26000
C919        C  0.73740475  0.68561820  0.94039642     0.36600
C920        C  0.72170506  0.70274048  0.96163703    -0.27600
F921        F  0.79957934  0.73669507  0.52373691    -0.19800
H922        H  0.82077922  0.70050696  0.98204600     0.15900
F923        F  0.71713529  0.66903164  0.91322155    -0.23500
H924        H  0.69340979  0.70211917  0.95594142     0.17700
C925        C  0.77845770  0.72938736  0.76358901    -0.27500
C926        C  0.73575222  0.70958546  0.75967500     0.06100
C927        C  0.71125937  0.67211391  0.77553070     0.25700
C928        C  0.72930438  0.65548210  0.79506316    -0.12000
C929        C  0.77188782  0.67629852  0.79974770    -0.26000
C930        C  0.79629330  0.71341579  0.78368842     0.36500
C931        C  0.71744085  0.72883367  0.73956300     0.06100
F932        F  0.66982797  0.65235333  0.77319828    -0.19700
H933        H  0.70985287  0.62698170  0.80734360     0.15900
F934        F  0.83763054  0.73410183  0.78703108    -0.23500
H935        H  0.79827786  0.75751606  0.75103859     0.17700
C936        C  0.73190154  0.77134478  0.74121571     0.25700
C937        C  0.71577274  0.78959721  0.72164752    -0.12000
C938        C  0.68409193  0.76593746  0.70065212    -0.26000
C939        C  0.66908343  0.72344787  0.69909455     0.36600
C940        C  0.68594272  0.70520797  0.71815285    -0.27600
F941        F  0.76099655  0.79529177  0.76231765    -0.19800
H942        H  0.72752955  0.82232394  0.72336420     0.15900
F943        F  0.63922654  0.69986422  0.67835887    -0.23500
H944        H  0.67478651  0.67267575  0.71577384     0.17700
C945        C  0.38777503  0.83877676  0.60194258    -0.27500
C946        C  0.40448663  0.83601352  0.63063541     0.06100
C947        C  0.38302523  0.83222101  0.65863653     0.25700
C948        C  0.34480769  0.82995394  0.65767327    -0.12000
C949        C  0.32729142  0.83088180  0.62877516    -0.26000
C950        C  0.34949437  0.83607144  0.60092450     0.36500
C951        C  0.44260771  0.83383355  0.63067805     0.06100
F952        F  0.39784787  0.82826589  0.68664585    -0.19700
H953        H  0.32806818  0.82554053  0.67940384     0.15900
F954        F  0.33402872  0.83811164  0.57265807    -0.23500
H955        H  0.40409179  0.84210728  0.58016252     0.17700
C956        C  0.44502282  0.80411160  0.61236693     0.25700
C957        C  0.48067168  0.80168120  0.61211324    -0.12000
C958        C  0.51470059  0.82848949  0.63030223    -0.26000
C959        C  0.51249128  0.85848879  0.64858789     0.36600
C960        C  0.47655761  0.86101630  0.64876285    -0.27600
F961        F  0.41236853  0.77650925  0.59541253    -0.19800
H962        H  0.48119979  0.77791763  0.59808929     0.15900
F963        F  0.54508643  0.88567373  0.66575107    -0.23500
H964        H  0.47529704  0.88438767  0.66278464     0.17700
C965        C  0.48197679  0.61530325  0.60475739    -0.27500
C966        C  0.45253822  0.60278243  0.62891124     0.06100
C967        C  0.45848731  0.63051897  0.65315817     0.25700
C968        C  0.49215486  0.67026710  0.65248167    -0.12000
C969        C  0.52070543  0.68361528  0.62757757    -0.26000
C970        C  0.51565587  0.65528314  0.60395254     0.36500
C971        C  0.41367734  0.56275363  0.62706783     0.06100
F972        F  0.43041682  0.62012949  0.67654532    -0.19700
H973        H  0.49497877  0.69110419  0.67110726     0.15900
F974        F  0.54253792  0.66632005  0.57966975    -0.23500
H975        H  0.47827193  0.59432839  0.58598096     0.17700
C976        C  0.38982416  0.55232135  0.59970774     0.25700
C977        C  0.35086851  0.51761588  0.59911518    -0.12000
C978        C  0.33439695  0.49237291  0.62576704    -0.26000
C979        C  0.35916896  0.50147737  0.65267565     0.36600
C980        C  0.39835011  0.53645216  0.65326412    -0.27600
F981        F  0.40299585  0.57717805  0.57410084    -0.19800
H982        H  0.33290536  0.51150744  0.57793025     0.15900
F983        F  0.34516773  0.47757440  0.67875168    -0.23500
H984        H  0.41640264  0.54357062  0.67449529     0.17700
loop_ 
_geom_bond_atom_site_label_1 
_geom_bond_atom_site_label_2 
_geom_bond_distance 
_geom_bond_site_symmetry_2 
_ccdc_geom_bond_type 
O1          Cr19   2.011       .  S
O1            C9   1.266       .  A
O2          Cr19   1.987       .  S
O2            C3   1.263       .  A
C3            O4   1.267       .  A
C3          C377   1.492       .  S
O4          Cr20   2.010       .  S
O5          Cr20   1.992       .  S
O5            C6   1.263       .  A
C6            O7   1.264       .  A
C6          C466   1.479       .  S
O7          Cr21   1.992       .  S
O8          Cr21   1.989       .  S
O8            C9   1.262       .  A
C9          C406   1.478       .  S
O10         Cr19   1.985       .  S
O10          C18   1.262       .  A
O11         Cr19   2.010       .  S
O11          C12   1.266       .  A
C12          O13   1.260       .  A
C12         C446   1.478       .  S
O13         Cr20   1.987       .  S
O14         Cr20   1.999       .  S
O14          C15   1.265       .  A
C15          O16   1.266       .  A
C15         C477   1.490       .  S
O16         Cr21   1.997       .  S
O17         Cr21   2.004       .  S
O17          C18   1.264       .  A
C18         C417   1.477       .  S
Cr19         O22   1.771       .  S
Cr20         O22   1.769       .  S
Cr21         O22   1.769       .  S
O23         Cr41   1.967       .  S
O23          C31   1.261       .  A
O24         Cr41   2.016       .  S
O24          C25   1.268       .  A
C25          O26   1.258       .  A
C25         C277   1.488       .  S
O26         Cr42   1.976       .  S
O27         Cr42   2.003       .  S
O27          C28   1.266       .  A
C28          O29   1.258       .  A
C28         C457   1.476       .  S
O29         Cr43   1.971       .  S
O30         Cr43   2.017       .  S
O30          C31   1.270       .  A
C31         C306   1.476       .  S
O32         Cr41   2.008       .  S
O32          C40   1.264       .  A
O33         Cr41   1.970       .  S
O33          C34   1.259       .  A
C34          O35   1.268       .  A
C34         C337   1.484       .  S
O35         Cr42   2.012       .  S
O36         Cr42   1.973       .  S
O36          C37   1.259       .  A
C37          O38   1.269       .  A
C37         C357   1.485       .  S
O38         Cr43   2.016       .  S
O39         Cr43   1.972       .  S
O39          C40   1.258       .  A
C40         C326   1.483       .  S
Cr41         O44   1.772       .  S
Cr42         O44   1.770       .  S
Cr43         O44   1.771       .  S
O45         Cr63   2.005       .  S
O45          C53   1.265       .  A
O46         Cr63   1.967       .  S
O46          C47   1.259       .  A
C47          O48   1.266       .  A
C47         C206   1.469       .  S
O48         Cr64   2.006       .  S
O49         Cr64   1.993       .  S
O49          C50   1.264       .  A
C50          O51   1.265       .  A
C50         C366   1.486       .  S
O51         Cr65   1.996       .  S
O52         Cr65   1.994       .  S
O52          C53   1.264       .  A
C53         C226   1.493       .  S
O54         Cr63   1.977       .  S
O54          C62   1.262       .  A
O55         Cr63   2.011       .  S
O55          C56   1.264       .  A
C56          O57   1.260       .  A
C56         C257   1.471       .  S
O57         Cr64   1.982       .  S
O58         Cr64   1.998       .  S
O58          C59   1.265       .  A
C59          O60   1.263       .  A
C59         C486   1.489       .  S
O60         Cr65   1.992       .  S
O61         Cr65   1.997       .  S
O61          C62   1.265       .  A
C62         C237   1.479       .  S
Cr63         O66   1.770       .  S
Cr64         O66   1.768       .  S
Cr65         O66   1.767       .  S
O67         Cr85   2.008       .  S
O67          C75   1.268       .  A
O68         Cr85   1.979       .  S
O68          C69   1.261       .  A
C69          O70   1.265       .  A
C69         C317   1.479       .  S
O70         Cr86   2.003       .  S
O71         Cr86   1.982       .  S
O71          C72   1.261       .  A
C72          O73   1.264       .  A
C72         C177   1.481       .  S
O73         Cr87   1.997       .  S
O74         Cr87   1.979       .  S
O74          C75   1.262       .  A
C75         C346   1.484       .  S
O76         Cr85   1.985       .  S
O76          C84   1.260       .  A
O77         Cr85   2.006       .  S
O77          C78   1.266       .  A
C78          O79   1.261       .  A
C78         C437   1.482       .  S
O79         Cr86   1.987       .  S
O80         Cr86   1.999       .  S
O80          C81   1.266       .  A
C81          O82   1.264       .  A
C81         C157   1.485       .  S
O82         Cr87   1.987       .  S
O83         Cr87   2.005       .  S
O83          C84   1.263       .  A
C84         C426   1.469       .  S
Cr85         O88   1.767       .  S
Cr86         O88   1.769       .  S
Cr87         O88   1.771       .  S
O89        Cr107   2.015       .  S
O89          C97   1.269       .  A
O90        Cr107   1.980       .  S
O90          C91   1.261       .  A
C91          O92   1.264       .  A
C91         C386   1.486       .  S
O92        Cr108   2.002       .  S
O93        Cr108   1.981       .  S
O93          C94   1.261       .  A
C94          O95   1.266       .  A
C94         C146   1.482       .  S
O95        Cr109   2.003       .  S
O96        Cr109   1.984       .  S
O96          C97   1.262       .  A
C97         C397   1.484       .  S
O98        Cr107   1.975       .  S
O98         C106   1.258       .  A
O99        Cr107   2.012       .  S
O99         C100   1.268       .  A
C100        O101   1.262       .  A
C100        C217   1.493       .  S
O101       Cr108   1.988       .  S
O102       Cr108   1.989       .  S
O102        C103   1.264       .  A
C103        O104   1.264       .  A
C103        C186   1.481       .  S
O104       Cr109   1.993       .  S
O105       Cr109   2.010       .  S
O105        C106   1.264       .  A
C106        C197   1.464       .  S
Cr107       O110   1.763       .  S
Cr108       O110   1.769       .  S
Cr109       O110   1.773       .  S
O111       Cr129   1.994       .  S
O111        C119   1.263       .  A
O112       Cr129   1.977       .  S
O112        C113   1.261       .  A
C113        O114   1.266       .  A
C113        C286   1.482       .  S
O114       Cr130   2.009       .  S
O115       Cr130   1.975       .  S
O115        C116   1.260       .  A
C116        O117   1.266       .  A
C116        C137   1.482       .  S
O117       Cr131   2.005       .  S
O118       Cr131   1.986       .  S
O118        C119   1.262       .  A
C119        C297   1.483       .  S
O120       Cr129   1.979       .  S
O120        C128   1.261       .  A
O121       Cr129   1.997       .  S
O121        C122   1.264       .  A
C122        O123   1.260       .  A
C122        C266   1.477       .  S
O123       Cr130   1.981       .  S
O124       Cr130   1.998       .  S
O124        C125   1.265       .  A
C125        O126   1.261       .  A
C125        C166   1.486       .  S
O126       Cr131   1.987       .  S
O127       Cr131   1.998       .  S
O127        C128   1.266       .  A
C128        C246   1.480       .  S
Cr129       O132   1.768       .  S
Cr130       O132   1.767       .  S
Cr131       O132   1.771       .  S
C133        C134   1.405       .  A
C133        C138   1.399       .  A
C133        H143   1.081       .  S
C134        C139   1.486       .  S
C134        C135   1.407       .  A
C135        C136   1.396       .  A
C135        F140   1.358       .  S
C136        C137   1.406       .  A
C136        H141   1.082       .  S
C137        C138   1.409       .  A
C138        F142   1.358       .  S
C139        C144   1.407       .  A
C139        C148   1.406       .  A
C144        C145   1.396       .  A
C144        F149   1.358       .  S
C145        C146   1.407       .  A
C145        H150   1.082       .  S
C146        C147   1.408       .  A
C147        C148   1.399       .  A
C147        F151   1.357       .  S
C148        H152   1.081       .  S
C153        C154   1.406       .  A
C153        C158   1.400       .  A
C153        H163   1.083       .  S
C154        C159   1.484       .  S
C154        C155   1.405       .  A
C155        C156   1.396       .  A
C155        F160   1.358       .  S
C156        C157   1.408       .  A
C156        H161   1.083       .  S
C157        C158   1.408       .  A
C158        F162   1.357       .  S
C159        C164   1.404       .  A
C159        C168   1.407       .  A
C164        C165   1.393       .  A
C164        F169   1.358       .  S
C165        C166   1.406       .  A
C165        H170   1.083       .  S
C166        C167   1.410       .  A
C167        C168   1.403       .  A
C167        F171   1.357       .  S
C168        H172   1.084       .  S
C173        C174   1.405       .  A
C173        C178   1.399       .  A
C173        H183   1.082       .  S
C174        C179   1.476       .  S
C174        C175   1.402       .  A
C175        C176   1.394       .  A
C175        F180   1.358       .  S
C176        C177   1.408       .  A
C176        H181   1.082       .  S
C177        C178   1.408       .  A
C178        F182   1.357       .  S
C179        C184   1.401       .  A
C179        C188   1.406       .  A
C184        C185   1.389       .  A
C184        F189   1.358       .  S
C185        C186   1.408       .  A
C185        H190   1.082       .  S
C186        C187   1.408       .  A
C187        C188   1.403       .  A
C187        F191   1.357       .  S
C188        H192   1.082       .  S
C193        C194   1.405       .  A
C193        C198   1.397       .  A
C193        H695   1.083       .  S
C194        C691   1.476   1_655  S
C194        C195   1.406       .  A
C195        C196   1.396       .  A
C195        F200   1.357   1_655  S
C196        C197   1.400       .  A
C196        H201   1.083       .  S
C197        C198   1.404       .  A
C198        F202   1.358       .  S
C199        C686   1.476   1_454  S
C199        C204   1.405       .  A
C199        C208   1.403   1_554  A
H203        C685   1.083   1_554  S
C204        C205   1.395       .  A
C204        F209   1.357   1_455  S
C205        C206   1.403       .  A
C205        H210   1.083       .  S
C206        C207   1.407       .  A
C207        C208   1.395   1_554  A
C207        F211   1.358       .  S
C208        H704   1.083       .  S
H212        C700   1.083       .  S
C213        C214   1.404       .  A
C213        C218   1.397       .  A
C213        H223   1.084   1_655  S
C214        C219   1.492   1_655  S
C214        C215   1.409       .  A
C215        C216   1.407       .  A
C215        F220   1.357       .  S
C216        C217   1.410       .  A
C216        H221   1.083       .  S
C217        C218   1.410       .  A
C218        F222   1.357       .  S
C219        C224   1.408       .  A
C219        C228   1.404       .  A
C224        C225   1.406       .  A
C224        F229   1.357       .  S
C225        C226   1.408       .  A
C225        H230   1.083       .  S
C226        C227   1.412       .  A
C227        C228   1.398       .  A
C227        F231   1.358       .  S
C228        H232   1.084       .  S
C233        C234   1.399       .  A
C233        C238   1.393       .  A
C233        H243   1.083       .  S
C234        C239   1.474       .  S
C234        C235   1.406       .  A
C235        C236   1.397       .  A
C235        F240   1.358       .  S
C236        C237   1.406       .  A
C236        H241   1.083       .  S
C237        C238   1.412       .  A
C238        F242   1.357       .  S
C239        C244   1.401       .  A
C239        C248   1.404       .  A
C244        C245   1.392       .  A
C244        F249   1.358       .  S
C245        C246   1.407       .  A
C245        H250   1.083       .  S
C246        C247   1.410       .  A
C247        C248   1.400       .  A
C247        F251   1.357       .  S
C248        H252   1.084       .  S
C253        C254   1.407       .  A
C253        C258   1.398       .  A
C253        H263   1.083   1_554  S
C254        C751   1.486   1_554  S
C254        C255   1.409       .  A
C255        C256   1.398       .  A
C255        F260   1.357       .  S
C256        C257   1.401       .  A
C256        H261   1.083       .  S
C257        C258   1.405       .  A
C258        F262   1.358       .  S
C259        C746   1.485       .  S
C259        C264   1.407       .  A
C259        C268   1.407       .  A
C264        C265   1.394       .  A
C264        F761   1.358       .  S
C265        C266   1.405       .  A
C265        H270   1.083       .  S
C266        C267   1.406       .  A
C267        C268   1.399       .  A
C267        F271   1.358       .  S
C268        H272   1.083       .  S
F269        C756   1.358       .  S
C273        C274   1.402       .  A
C273        C278   1.401       .  A
C273        H283   1.083       .  S
C274        C771   1.481   1_564  S
C274        C275   1.405       .  A
C275        C276   1.398       .  A
C275        F280   1.358       .  S
C276        C277   1.407       .  A
C276        H281   1.083       .  S
C277        C278   1.413       .  A
C278        F282   1.357       .  S
C279        C766   1.483   1_545  S
C279        C284   1.406       .  A
C279        C288   1.403       .  A
C284        C285   1.401       .  A
C284        F781   1.358       .  S
C285        C286   1.408       .  A
C285        H290   1.083       .  S
C286        C287   1.408       .  A
C287        C288   1.397       .  A
C287        F291   1.357       .  S
C288        H292   1.083   1_545  S
F289        C776   1.358   1_554  S
C293        C294   1.399       .  A
C293        C298   1.394       .  A
C293        H303   1.083       .  S
C294        C299   1.476   1_545  S
C294        C295   1.405       .  A
C295        C296   1.401       .  A
C295        F300   1.357       .  S
C296        C297   1.407       .  A
C296        H301   1.083       .  S
C297        C298   1.412       .  A
C298        F302   1.358       .  S
C299        C304   1.404       .  A
C299        C308   1.402       .  A
C304        C305   1.399       .  A
C304        F309   1.357       .  S
C305        C306   1.405       .  A
C305        H310   1.083       .  S
C306        C307   1.408       .  A
C307        C308   1.397       .  A
C307        F311   1.358       .  S
C308        H312   1.083   1_565  S
C313        C314   1.402       .  A
C313        C318   1.398       .  A
C313        H323   1.083       .  S
C314        C319   1.478   1_655  S
C314        C315   1.405       .  A
C315        C316   1.399       .  A
C315        F320   1.358   1_655  S
C316        C317   1.405       .  A
C316        H321   1.083       .  S
C317        C318   1.409       .  A
C318        F322   1.358       .  S
C319        C324   1.404       .  A
C319        C328   1.402       .  A
C324        C325   1.398       .  A
C324        F329   1.357       .  S
C325        C326   1.408       .  A
C325        H330   1.083       .  S
C326        C327   1.410       .  A
C327        C328   1.397       .  A
C327        F331   1.357       .  S
C328        H332   1.084       .  S
C333        C334   1.401       .  A
C333        C338   1.397       .  A
C333        H343   1.083   1_455  S
C334        C831   1.476   1_454  S
C334        C335   1.403       .  A
C335        C336   1.399       .  A
C335        F832   1.357   1_554  S
C336        C337   1.408       .  A
C336        H341   1.083       .  S
C337        C338   1.411       .  A
C338        F342   1.357       .  S
C339        C826   1.474   1_655  S
C339        C344   1.403       .  A
C339        C348   1.400       .  A
F340        C827   1.357       .  S
C344        C345   1.401       .  A
C344        F841   1.357       .  S
C345        C346   1.409       .  A
C345        H350   1.083       .  S
C346        C347   1.411       .  A
C347        C348   1.395       .  A
C347        F351   1.357       .  S
C348        H352   1.083       .  S
F349        C836   1.357       .  S
C353        C354   1.405       .  A
C353        C358   1.402       .  A
C353        H363   1.082       .  S
C354        C359   1.492       .  S
C354        C355   1.410       .  A
C355        C356   1.398       .  A
C355        F360   1.358       .  S
C356        C357   1.403       .  A
C356        H361   1.083       .  S
C357        C358   1.411       .  A
C358        F362   1.358       .  S
C359        C364   1.411       .  A
C359        C368   1.403       .  A
C364        C365   1.406       .  A
C364        F369   1.357       .  S
C365        C366   1.407       .  A
C365        H370   1.084       .  S
C366        C367   1.410       .  A
C367        C368   1.392       .  A
C367        F371   1.358       .  S
C368        H372   1.083       .  S
C373        C374   1.402       .  A
C373        C378   1.400       .  A
C373        H383   1.084       .  S
C374        C379   1.483   1_565  S
C374        C375   1.405       .  A
C375        C376   1.402       .  A
C375        F380   1.357   1_565  S
C376        C377   1.408       .  A
C376        H381   1.083       .  S
C377        C378   1.413       .  A
C378        F382   1.357       .  S
C379        C384   1.405       .  A
C379        C388   1.403       .  A
C384        C385   1.400       .  A
C384        F389   1.357       .  S
C385        C386   1.409       .  A
C385        H390   1.083       .  S
C386        C387   1.409       .  A
C387        C388   1.399       .  A
C387        F391   1.357       .  S
C388        H392   1.083   1_545  S
C393        C394   1.408       .  A
C393        C398   1.403       .  A
C393        H403   1.083       .  S
C394        C891   1.494   1_545  S
C394        C395   1.410       .  A
C395        C396   1.398       .  A
C395        F892   1.357       .  S
C396        C397   1.404       .  A
C396        H401   1.083       .  S
C397        C398   1.408       .  A
C398        F402   1.358       .  S
C399        C886   1.494   1_564  S
C399        C404   1.412       .  A
C399        C408   1.407       .  A
F400        C887   1.357       .  S
C404        C405   1.403       .  A
C404        F409   1.357   1_565  S
C405        C406   1.403       .  A
C405        H410   1.083       .  S
C406        C407   1.405       .  A
C407        C408   1.398       .  A
C407        F411   1.358       .  S
C408        H904   1.082   1_554  S
H412        C900   1.082       .  S
C413        C414   1.408       .  A
C413        C418   1.400       .  A
C413        H423   1.083       .  S
C414        C911   1.489   1_554  S
C414        C415   1.408       .  A
C415        C416   1.397       .  A
C415        F912   1.358   1_554  S
C416        C417   1.405       .  A
C416        H421   1.084       .  S
C417        C418   1.404       .  A
C418        F422   1.357       .  S
C419        C906   1.489       .  S
C419        C424   1.409       .  A
C419        C428   1.409       .  A
F420        C907   1.358       .  S
C424        C425   1.397       .  A
C424        F921   1.358       .  S
C425        C426   1.402       .  A
C425        H430   1.084       .  S
C426        C427   1.401       .  A
C427        C428   1.400       .  A
C427        F431   1.357       .  S
C428        H432   1.083       .  S
F429        C916   1.358   1_554  S
C433        C434   1.406       .  A
C433        C438   1.396       .  A
C433        H443   1.083       .  S
C434        C439   1.494       .  S
C434        C435   1.412       .  A
C435        C436   1.404       .  A
C435        F440   1.357       .  S
C436        C437   1.405       .  A
C436        H441   1.083       .  S
C437        C438   1.406       .  A
C438        F442   1.358       .  S
C439        C444   1.411       .  A
C439        C448   1.409       .  A
C444        C445   1.397       .  A
C444        F449   1.357       .  S
C445        C446   1.401       .  A
C445        H450   1.083       .  S
C446        C447   1.406       .  A
C447        C448   1.403       .  A
C447        F451   1.358       .  S
C448        H452   1.083       .  S
C453        C454   1.404       .  A
C453        C458   1.395       .  A
C453        H463   1.083       .  S
C454        C459   1.479       .  S
C454        C455   1.405       .  A
C455        C456   1.400       .  A
C455        F460   1.358       .  S
C456        C457   1.407       .  A
C456        H461   1.083       .  S
C457        C458   1.406       .  A
C458        F462   1.358       .  S
C459        C464   1.403       .  A
C459        C468   1.406       .  A
C464        C465   1.391       .  A
C464        F469   1.358       .  S
C465        C466   1.406       .  A
C465        H470   1.084       .  S
C466        C467   1.408       .  A
C467        C468   1.403       .  A
C467        F471   1.357       .  S
C468        H472   1.083       .  S
C473        C474   1.408       .  A
C473        C478   1.403       .  A
C473        H483   1.083       .  S
C474        C479   1.489       .  S
C474        C475   1.405       .  A
C475        C476   1.397       .  A
C475        F480   1.358       .  S
C476        C477   1.410       .  A
C476        H481   1.083       .  S
C477        C478   1.409       .  A
C478        F482   1.357       .  S
C479        C484   1.405       .  A
C479        C488   1.408       .  A
C484        C485   1.395       .  A
C484        F489   1.357       .  S
C485        C486   1.408       .  A
C485        H490   1.083       .  S
C486        C487   1.410       .  A
C487        C488   1.405       .  A
C487        F491   1.357       .  S
C488        H492   1.083       .  S
O493       Cr511   2.011       .  S
O493        C501   1.267       .  A
O494       Cr511   1.986       .  S
O494        C495   1.263       .  A
C495        O496   1.267       .  A
C495        C869   1.491       .  S
O496       Cr512   2.011       .  S
O497       Cr512   1.992       .  S
O497        C498   1.263       .  A
C498        O499   1.264       .  A
C498        C958   1.479       .  S
O499       Cr513   1.992       .  S
O500       Cr513   1.989       .  S
O500        C501   1.262       .  A
C501        C898   1.478       .  S
O502       Cr511   1.985       .  S
O502        C510   1.261       .  A
O503       Cr511   2.011       .  S
O503        C504   1.266       .  A
C504        O505   1.260       .  A
C504        C938   1.478       .  S
O505       Cr512   1.987       .  S
O506       Cr512   2.001       .  S
O506        C507   1.266       .  A
C507        O508   1.266       .  A
C507        C969   1.491       .  S
O508       Cr513   1.997       .  S
O509       Cr513   2.004       .  S
O509        C510   1.264       .  A
C510        C909   1.477       .  S
Cr511       O514   1.771       .  S
Cr512       O514   1.768       .  S
Cr513       O514   1.769       .  S
O515       Cr533   1.967       .  S
O515        C523   1.260       .  A
O516       Cr533   2.017       .  S
O516        C517   1.268       .  A
C517        O518   1.259       .  A
C517        C769   1.489       .  S
O518       Cr534   1.976       .  S
O519       Cr534   2.004       .  S
O519        C520   1.266       .  A
C520        O521   1.258       .  A
C520        C949   1.476       .  S
O521       Cr535   1.971       .  S
O522       Cr535   2.019       .  S
O522        C523   1.271       .  A
C523        C798   1.479       .  S
O524       Cr533   2.010       .  S
O524        C532   1.265       .  A
O525       Cr533   1.970       .  S
O525        C526   1.259       .  A
C526        O527   1.268       .  A
C526        C829   1.483       .  S
O527       Cr534   2.012       .  S
O528       Cr534   1.972       .  S
O528        C529   1.259       .  A
C529        O530   1.269       .  A
C529        C849   1.484       .  S
O530       Cr535   2.016       .  S
O531       Cr535   1.972       .  S
O531        C532   1.258       .  A
C532        C818   1.483       .  S
Cr533       O536   1.771       .  S
Cr534       O536   1.770       .  S
Cr535       O536   1.770       .  S
O537       Cr555   2.004       .  S
O537        C545   1.265       .  A
O538       Cr555   1.967       .  S
O538        C539   1.259       .  A
C539        O540   1.266       .  A
C539        C698   1.469       .  S
O540       Cr556   2.007       .  S
O541       Cr556   1.992       .  S
O541        C542   1.264       .  A
C542        O543   1.264       .  A
C542        C858   1.486       .  S
O543       Cr557   1.994       .  S
O544       Cr557   1.995       .  S
O544        C545   1.264       .  A
C545        C718   1.493       .  S
O546       Cr555   1.977       .  S
O546        C554   1.262       .  A
O547       Cr555   2.010       .  S
O547        C548   1.263       .  A
C548        O549   1.260       .  A
C548        C749   1.470       .  S
O549       Cr556   1.982       .  S
O550       Cr556   2.000       .  S
O550        C551   1.266       .  A
C551        O552   1.264       .  A
C551        C978   1.490       .  S
O552       Cr557   1.993       .  S
O553       Cr557   1.996       .  S
O553        C554   1.264       .  A
C554        C729   1.478       .  S
Cr555       O558   1.770       .  S
Cr556       O558   1.769       .  S
Cr557       O558   1.766       .  S
O559       Cr577   2.009       .  S
O559        C567   1.268       .  A
O560       Cr577   1.980       .  S
O560        C561   1.261       .  A
C561        O562   1.265       .  A
C561        C809   1.479       .  S
O562       Cr578   2.002       .  S
O563       Cr578   1.983       .  S
O563        C564   1.261       .  A
C564        O565   1.264       .  A
C564        C669   1.480       .  S
O565       Cr579   1.995       .  S
O566       Cr579   1.980       .  S
O566        C567   1.262       .  A
C567        C838   1.485       .  S
O568       Cr577   1.985       .  S
O568        C576   1.260       .  A
O569       Cr577   2.006       .  S
O569        C570   1.266       .  A
C570        O571   1.262       .  A
C570        C929   1.483       .  S
O571       Cr578   1.988       .  S
O572       Cr578   1.998       .  S
O572        C573   1.265       .  A
C573        O574   1.264       .  A
C573        C649   1.485       .  S
O574       Cr579   1.987       .  S
O575       Cr579   2.004       .  S
O575        C576   1.263       .  A
C576        C918   1.469       .  S
Cr577       O580   1.767       .  S
Cr578       O580   1.769       .  S
Cr579       O580   1.771       .  S
O581       Cr599   2.016       .  S
O581        C589   1.269       .  A
O582       Cr599   1.979       .  S
O582        C583   1.261       .  A
C583        O584   1.264       .  A
C583        C878   1.485       .  S
O584       Cr600   2.001       .  S
O585       Cr600   1.982       .  S
O585        C586   1.262       .  A
C586        O587   1.266       .  A
C586        C638   1.484       .  S
O587       Cr601   2.004       .  S
O588       Cr601   1.984       .  S
O588        C589   1.262       .  A
C589        C889   1.484       .  S
O590       Cr599   1.974       .  S
O590        C598   1.258       .  A
O591       Cr599   2.012       .  S
O591        C592   1.268       .  A
C592        O593   1.262       .  A
C592        C709   1.494       .  S
O593       Cr600   1.989       .  S
O594       Cr600   1.988       .  S
O594        C595   1.264       .  A
C595        O596   1.264       .  A
C595        C678   1.481       .  S
O596       Cr601   1.991       .  S
O597       Cr601   2.009       .  S
O597        C598   1.264       .  A
C598        C689   1.463       .  S
Cr599       O602   1.763       .  S
Cr600       O602   1.768       .  S
Cr601       O602   1.773       .  S
O603       Cr621   1.995       .  S
O603        C611   1.263       .  A
O604       Cr621   1.976       .  S
O604        C605   1.261       .  A
C605        O606   1.266       .  A
C605        C778   1.481       .  S
O606       Cr622   2.007       .  S
O607       Cr622   1.975       .  S
O607        C608   1.261       .  A
C608        O609   1.267       .  A
C608        C629   1.483       .  S
O609       Cr623   2.005       .  S
O610       Cr623   1.985       .  S
O610        C611   1.262       .  A
C611        C789   1.482       .  S
O612       Cr621   1.978       .  S
O612        C620   1.261       .  A
O613       Cr621   1.999       .  S
O613        C614   1.264       .  A
C614        O615   1.261       .  A
C614        C758   1.479       .  S
O615       Cr622   1.982       .  S
O616       Cr622   1.997       .  S
O616        C617   1.265       .  A
C617        O618   1.261       .  A
C617        C658   1.485       .  S
O618       Cr623   1.987       .  S
O619       Cr623   1.997       .  S
O619        C620   1.266       .  A
C620        C738   1.479       .  S
Cr621       O624   1.768       .  S
Cr622       O624   1.767       .  S
Cr623       O624   1.771       .  S
C625        C626   1.406       .  A
C625        C630   1.399       .  A
C625        H635   1.081       .  S
C626        C631   1.487       .  S
C626        C627   1.408       .  A
C627        C628   1.396       .  A
C627        F632   1.358       .  S
C628        C629   1.406       .  A
C628        H633   1.082       .  S
C629        C630   1.409       .  A
C630        F634   1.358       .  S
C631        C636   1.407       .  A
C631        C640   1.406       .  A
C636        C637   1.397       .  A
C636        F641   1.358       .  S
C637        C638   1.407       .  A
C637        H642   1.082       .  S
C638        C639   1.408       .  A
C639        C640   1.399       .  A
C639        F643   1.357       .  S
C640        H644   1.081       .  S
C645        C646   1.406       .  A
C645        C650   1.400       .  A
C645        H655   1.083       .  S
C646        C651   1.484       .  S
C646        C647   1.405       .  A
C647        C648   1.395       .  A
C647        F652   1.358       .  S
C648        C649   1.408       .  A
C648        H653   1.083       .  S
C649        C650   1.408       .  A
C650        F654   1.357       .  S
C651        C656   1.404       .  A
C651        C660   1.407       .  A
C656        C657   1.393       .  A
C656        F661   1.357       .  S
C657        C658   1.406       .  A
C657        H662   1.083       .  S
C658        C659   1.410       .  A
C659        C660   1.403       .  A
C659        F663   1.357       .  S
C660        H664   1.083       .  S
C665        C666   1.405       .  A
C665        C670   1.399       .  A
C665        H675   1.082       .  S
C666        C671   1.475       .  S
C666        C667   1.401       .  A
C667        C668   1.394       .  A
C667        F672   1.358       .  S
C668        C669   1.408       .  A
C668        H673   1.082       .  S
C669        C670   1.408       .  A
C670        F674   1.357       .  S
C671        C676   1.401       .  A
C671        C680   1.406       .  A
C676        C677   1.389       .  A
C676        F681   1.358       .  S
C677        C678   1.407       .  A
C677        H682   1.082       .  S
C678        C679   1.409       .  A
C679        C680   1.403       .  A
C679        F683   1.357       .  S
C680        H684   1.082       .  S
C685        C686   1.405       .  A
C685        C690   1.396       .  A
C686        C687   1.406       .  A
C687        C688   1.396       .  A
C687        F692   1.357   1_655  S
C688        C689   1.400       .  A
C688        H693   1.083       .  S
C689        C690   1.404       .  A
C690        F694   1.358       .  S
C691        C696   1.405       .  A
C691        C700   1.404       .  A
C696        C697   1.395       .  A
C696        F701   1.357   1_455  S
C697        C698   1.403       .  A
C697        H702   1.083       .  S
C698        C699   1.406       .  A
C699        C700   1.395       .  A
C699        F703   1.358       .  S
C705        C706   1.404       .  A
C705        C710   1.398       .  A
C705        H715   1.084   1_655  S
C706        C711   1.493   1_655  S
C706        C707   1.409       .  A
C707        C708   1.407       .  A
C707        F712   1.357       .  S
C708        C709   1.410       .  A
C708        H713   1.083       .  S
C709        C710   1.410       .  A
C710        F714   1.357       .  S
C711        C716   1.409       .  A
C711        C720   1.404       .  A
C716        C717   1.406       .  A
C716        F721   1.357       .  S
C717        C718   1.408       .  A
C717        H722   1.083       .  S
C718        C719   1.412       .  A
C719        C720   1.398       .  A
C719        F723   1.358       .  S
C720        H724   1.084       .  S
C725        C726   1.398       .  A
C725        C730   1.393       .  A
C725        H735   1.083       .  S
C726        C731   1.473       .  S
C726        C727   1.406       .  A
C727        C728   1.397       .  A
C727        F732   1.358       .  S
C728        C729   1.405       .  A
C728        H733   1.083       .  S
C729        C730   1.412       .  A
C730        F734   1.358       .  S
C731        C736   1.401       .  A
C731        C740   1.404       .  A
C736        C737   1.391       .  A
C736        F741   1.358       .  S
C737        C738   1.406       .  A
C737        H742   1.083       .  S
C738        C739   1.410       .  A
C739        C740   1.399       .  A
C739        F743   1.358       .  S
C740        H744   1.084       .  S
C745        C746   1.407       .  A
C745        C750   1.397       .  A
C745        H755   1.083       .  S
C746        C747   1.408       .  A
C747        C748   1.398       .  A
C747        F752   1.357       .  S
C748        C749   1.401       .  A
C748        H753   1.083       .  S
C749        C750   1.405       .  A
C750        F754   1.358       .  S
C751        C756   1.407       .  A
C751        C760   1.407       .  A
C756        C757   1.395       .  A
C757        C758   1.406       .  A
C757        H762   1.083       .  S
C758        C759   1.407       .  A
C759        C760   1.399       .  A
C759        F763   1.358       .  S
C760        H764   1.083       .  S
C765        C766   1.403       .  A
C765        C770   1.402       .  A
C765        H775   1.083       .  S
C766        C767   1.405       .  A
C767        C768   1.398       .  A
C767        F772   1.358       .  S
C768        C769   1.407       .  A
C768        H773   1.083       .  S
C769        C770   1.413       .  A
C770        F774   1.357       .  S
C771        C776   1.405       .  A
C771        C780   1.403       .  A
C776        C777   1.401       .  A
C777        C778   1.407       .  A
C777        H782   1.083       .  S
C778        C779   1.408       .  A
C779        C780   1.397       .  A
C779        F783   1.357       .  S
C780        H784   1.083   1_545  S
C785        C786   1.399       .  A
C785        C790   1.395       .  A
C785        H795   1.083       .  S
C786        C791   1.474   1_545  S
C786        C787   1.404       .  A
C787        C788   1.401       .  A
C787        F792   1.357       .  S
C788        C789   1.407       .  A
C788        H793   1.083       .  S
C789        C790   1.412       .  A
C790        F794   1.358       .  S
C791        C796   1.403       .  A
C791        C800   1.401       .  A
C796        C797   1.399       .  A
C796        F801   1.357       .  S
C797        C798   1.405       .  A
C797        H802   1.083       .  S
C798        C799   1.410       .  A
C799        C800   1.398       .  A
C799        F803   1.358       .  S
C800        H804   1.084   1_565  S
C805        C806   1.402       .  A
C805        C810   1.398       .  A
C805        H815   1.083       .  S
C806        C811   1.479   1_655  S
C806        C807   1.405       .  A
C807        C808   1.399       .  A
C807        F812   1.357   1_655  S
C808        C809   1.405       .  A
C808        H813   1.083       .  S
C809        C810   1.409       .  A
C810        F814   1.358       .  S
C811        C816   1.404       .  A
C811        C820   1.403       .  A
C816        C817   1.398       .  A
C816        F821   1.357       .  S
C817        C818   1.408       .  A
C817        H822   1.083       .  S
C818        C819   1.410       .  A
C819        C820   1.398       .  A
C819        F823   1.357       .  S
C820        H824   1.084       .  S
C825        C826   1.401       .  A
C825        C830   1.397       .  A
C825        H835   1.083   1_455  S
C826        C827   1.403       .  A
C827        C828   1.398       .  A
C828        C829   1.408       .  A
C828        H833   1.083       .  S
C829        C830   1.411       .  A
C830        F834   1.358       .  S
C831        C836   1.404       .  A
C831        C840   1.400       .  A
C836        C837   1.401       .  A
C837        C838   1.409       .  A
C837        H842   1.083       .  S
C838        C839   1.411       .  A
C839        C840   1.395       .  A
C839        F843   1.357       .  S
C840        H844   1.083       .  S
C845        C846   1.405       .  A
C845        C850   1.401       .  A
C845        H855   1.082       .  S
C846        C851   1.492       .  S
C846        C847   1.410       .  A
C847        C848   1.398       .  A
C847        F852   1.358       .  S
C848        C849   1.403       .  A
C848        H853   1.083       .  S
C849        C850   1.411       .  A
C850        F854   1.358       .  S
C851        C856   1.411       .  A
C851        C860   1.403       .  A
C856        C857   1.406       .  A
C856        F861   1.357       .  S
C857        C858   1.407       .  A
C857        H862   1.084       .  S
C858        C859   1.410       .  A
C859        C860   1.392       .  A
C859        F863   1.358       .  S
C860        H864   1.083       .  S
C865        C866   1.401       .  A
C865        C870   1.399       .  A
C865        H875   1.084       .  S
C866        C871   1.482   1_565  S
C866        C867   1.405       .  A
C867        C868   1.402       .  A
C867        F872   1.358   1_565  S
C868        C869   1.409       .  A
C868        H873   1.083       .  S
C869        C870   1.413       .  A
C870        F874   1.357       .  S
C871        C876   1.404       .  A
C871        C880   1.403       .  A
C876        C877   1.399       .  A
C876        F881   1.357       .  S
C877        C878   1.409       .  A
C877        H882   1.083       .  S
C878        C879   1.409       .  A
C879        C880   1.399       .  A
C879        F883   1.357       .  S
C880        H884   1.083   1_545  S
C885        C886   1.408       .  A
C885        C890   1.403       .  A
C885        H895   1.083       .  S
C886        C887   1.410       .  A
C887        C888   1.398       .  A
C888        C889   1.404       .  A
C888        H893   1.083       .  S
C889        C890   1.408       .  A
C890        F894   1.358       .  S
C891        C896   1.411       .  A
C891        C900   1.407       .  A
C896        C897   1.403       .  A
C896        F901   1.357   1_565  S
C897        C898   1.403       .  A
C897        H902   1.083       .  S
C898        C899   1.405       .  A
C899        C900   1.398       .  A
C899        F903   1.358       .  S
C905        C906   1.408       .  A
C905        C910   1.400       .  A
C905        H915   1.083       .  S
C906        C907   1.408       .  A
C907        C908   1.397       .  A
C908        C909   1.405       .  A
C908        H913   1.084       .  S
C909        C910   1.404       .  A
C910        F914   1.357       .  S
C911        C916   1.409       .  A
C911        C920   1.409       .  A
C916        C917   1.397       .  A
C917        C918   1.402       .  A
C917        H922   1.084       .  S
C918        C919   1.401       .  A
C919        C920   1.400       .  A
C919        F923   1.357       .  S
C920        H924   1.083       .  S
C925        C926   1.406       .  A
C925        C930   1.397       .  A
C925        H935   1.083       .  S
C926        C931   1.495       .  S
C926        C927   1.412       .  A
C927        C928   1.404       .  A
C927        F932   1.357       .  S
C928        C929   1.405       .  A
C928        H933   1.083       .  S
C929        C930   1.406       .  A
C930        F934   1.358       .  S
C931        C936   1.411       .  A
C931        C940   1.409       .  A
C936        C937   1.398       .  A
C936        F941   1.357       .  S
C937        C938   1.401       .  A
C937        H942   1.083       .  S
C938        C939   1.407       .  A
C939        C940   1.404       .  A
C939        F943   1.358       .  S
C940        H944   1.083       .  S
C945        C946   1.403       .  A
C945        C950   1.395       .  A
C945        H955   1.083       .  S
C946        C951   1.479       .  S
C946        C947   1.405       .  A
C947        C948   1.400       .  A
C947        F952   1.358       .  S
C948        C949   1.407       .  A
C948        H953   1.083       .  S
C949        C950   1.405       .  A
C950        F954   1.358       .  S
C951        C956   1.403       .  A
C951        C960   1.406       .  A
C956        C957   1.391       .  A
C956        F961   1.358       .  S
C957        C958   1.406       .  A
C957        H962   1.084       .  S
C958        C959   1.408       .  A
C959        C960   1.403       .  A
C959        F963   1.357       .  S
C960        H964   1.083       .  S
C965        C966   1.408       .  A
C965        C970   1.403       .  A
C965        H975   1.083       .  S
C966        C971   1.490       .  S
C966        C967   1.405       .  A
C967        C968   1.398       .  A
C967        F972   1.358       .  S
C968        C969   1.410       .  A
C968        H973   1.083       .  S
C969        C970   1.409       .  A
C970        F974   1.357       .  S
C971        C976   1.405       .  A
C971        C980   1.408       .  A
C976        C977   1.396       .  A
C976        F981   1.357       .  S
C977        C978   1.408       .  A
C977        H982   1.083       .  S
C978        C979   1.410       .  A
C979        C980   1.405       .  A
C979        F983   1.357       .  S
C980        H984   1.083       .  S
