geometry optimzed in LAMMPS
_audit_creation_date              2020-12-01 
_audit_creation_method            'lammps2cif' 
_symmetry_space_group_name_H-M    'P1' 
_symmetry_Int_Tables_number       1 
_symmetry_cell_setting            triclinic 
loop_ 
_symmetry_equiv_pos_as_xyz 
  x,y,z 
_cell_length_a                    45.86320797 
_cell_length_b                    48.28147987039621 
_cell_length_c                    23.98262637082834 
_cell_angle_alpha                 98.66012943623227 
_cell_angle_beta                  92.70990107568518 
_cell_angle_gamma                 115.44727047921833 
loop_ 
_atom_site_label 
_atom_site_type_symbol 
_atom_site_fract_x 
_atom_site_fract_y 
_atom_site_fract_z 
_atom_site_charge 
O1          O  0.46484100  0.10292494  0.10628613    -0.80900
O2          O  0.48542321  0.11886926  0.35846827    -0.65600
O3          O  0.43929221  0.09584420  0.20970727    -1.12200
C4          C  0.44369117  0.19418731  0.23608918     1.06000
O5          O  0.46052964  0.14679496  0.39326295    -0.78800
O6          O  0.40835967  0.13110676  0.31676308    -0.66400
Ni7        Ni  0.44699116  0.07034389  0.15076015     1.34900
C8          C  0.39029637  0.12066425  0.26935807     0.84700
O9          O  0.45096896  0.06168928  0.28433190    -0.79300
O10         O  0.42970399  0.03707540  0.19344269    -0.89600
C11         C  0.48276872  0.13799566  0.39836826     0.84300
O12         O  0.99190557  0.08169881  0.17758137    -0.67800
O13         O  0.43867208  0.18819772  0.28560179    -0.87100
C14         C  0.01040475  0.09851079  0.22266846     0.85100
C15         C  0.43517951  0.03664490  0.24627322     1.06700
H16         H  0.49090013  0.16093996  0.28080884     0.38500
O17         O  0.46795755  0.14731244  0.27950895    -1.09700
O18         O  0.40224827  0.12592049  0.22221149    -0.66400
Ni19       Ni  0.44721787  0.13728602  0.20338238     1.26300
O20         O  0.50304765  0.11272076  0.25844246    -0.66600
O21         O  0.45360745  0.17892184  0.20053896    -0.78900
C22         C  0.45313347  0.12107901  0.09293957     0.84500
O23         O  0.43359000  0.12712936  0.12312548    -0.66100
Ni24       Ni  0.45013830  0.16568222  0.33537979     1.27400
Ni25       Ni  0.46137363  0.10541320  0.28357971     1.26100
H26         H  0.41650991  0.08414313  0.21303099     0.39100
O27         O  0.35393900  0.31031319  0.09264597    -0.80900
O28         O  0.36996003  0.31415584  0.36137750    -0.65600
O29         O  0.35339704  0.32224033  0.20898674    -1.12200
C30         C  0.46815011  0.38786523  0.24813293     1.06000
O31         O  0.39222136  0.36588444  0.37979805    -0.78800
O32         O  0.42326978  0.40936459  0.31716909    -0.66400
Ni33       Ni  0.33708376  0.28596385  0.15029396     1.34900
C34         C  0.40603809  0.41090616  0.27604342     0.84700
O35         O  0.31700405  0.28446897  0.28295968    -0.79300
O36         O  0.31491046  0.25711158  0.19836397    -0.89600
C37         C  0.37802570  0.33993229  0.39566853     0.84300
O38         O  0.37552681  0.28030628  0.16502162    -0.67800
O39         O  0.46521999  0.38518664  0.29994929    -0.87100
C40         C  0.38433615  0.27505748  0.21216392     0.85100
C41         C  0.30459423  0.25915395  0.24629723     1.06700
H42         H  0.41740103  0.33181175  0.27415189     0.38500
O43         O  0.40465212  0.34321287  0.27902642    -1.09700
O44         O  0.38979592  0.38723963  0.23650596    -0.66400
Ni45       Ni  0.39809825  0.35172179  0.20784632     1.26300
O46         O  0.37437337  0.28215600  0.25891664    -0.66600
O47         O  0.44391958  0.37904262  0.20942081    -0.78900
C48         C  0.36996504  0.33931295  0.09253010     0.84500
O49         O  0.38914835  0.35880331  0.13500888    -0.66100
Ni50       Ni  0.42871252  0.37547527  0.33991222     1.27400
Ni51       Ni  0.36101443  0.31507830  0.28312230     1.26100
H52         H  0.33917026  0.33232040  0.20906872     0.39100
O53         O  0.19204483  0.04916118  0.39205389    -0.80900
O54         O  0.20692533  0.06412753  0.14247184    -0.65600
O55         O  0.18078540  0.07132366  0.29317674    -1.12200
C56         C  0.09506872  0.47233901  0.21746280     1.06000
O57         O  0.15799457  0.05523894  0.11468823    -0.78800
O58         O  0.11227493  0.04800245  0.17856363    -0.66400
Ni59       Ni  0.21059807  0.08765766  0.36002752     1.34900
C60         C  0.10660894  0.05443169  0.22874376     0.84700
O61         O  0.22728021  0.11326788  0.23798713    -0.79300
O62         O  0.22878258  0.12692979  0.33329396    -0.89600
C63         C  0.18389976  0.05455834  0.10200740     0.84300
O64         O  0.24558795  0.08003239  0.33130435    -0.67800
O65         O  0.09945763  0.48281725  0.17131337    -0.87100
C66         C  0.25073933  0.06977566  0.28236008     0.85100
C67         C  0.23483150  0.13381103  0.28404296     1.06700
H68         H  0.16956772  0.01352776  0.19842725     0.38500
O69         O  0.16082488  0.02853478  0.20578102    -1.09700
O70         O  0.11602509  0.04535512  0.27027924    -0.66400
Ni71       Ni  0.14786479  0.02926714  0.28060551     1.26300
O72         O  0.22843903  0.05739923  0.24015915    -0.66600
O73         O  0.11423283  0.48598305  0.26391788    -0.78900
C74         C  0.16182888  0.03392729  0.39842275     0.84500
O75         O  0.13976487  0.03031572  0.35948327    -0.66100
Ni76       Ni  0.12885329  0.02084511  0.14389920     1.27400
Ni77       Ni  0.19540772  0.07007410  0.21982286     1.26100
H78         H  0.17020381  0.08487856  0.29462653     0.39100
O79         O  0.37474343  0.41430338  0.88884212    -0.80900
O80         O  0.34878591  0.38939341  0.63651130    -0.65600
O81         O  0.34273655  0.41398683  0.78978364    -1.12200
C82         C  0.25920538  0.31620328  0.78364479     1.06000
O83         O  0.30206244  0.34589394  0.61221835    -0.78800
O84         O  0.27440032  0.37426471  0.68970834    -0.66400
Ni85       Ni  0.37810397  0.44359953  0.84107609     1.34900
C86         C  0.27015105  0.38682925  0.73759817     0.84700
O87         O  0.36976116  0.44610931  0.70441522    -0.79300
O88         O  0.38236371  0.47365146  0.79442625    -0.89600
C89         C  0.32951482  0.36493948  0.60149023     0.84300
O90         O  0.41242142  0.43758469  0.80762650    -0.67800
O91         O  0.25375190  0.32246760  0.73605359    -0.87100
C92         C  0.41369509  0.42007565  0.76364315     0.85100
C93         C  0.38045176  0.47196707  0.74048347     1.06700
H94         H  0.33385656  0.34877588  0.72407420     0.38500
O95         O  0.32109181  0.36036152  0.72611854    -1.09700
O96         O  0.27982905  0.38211983  0.78520959    -0.66400
Ni97       Ni  0.31682084  0.37301290  0.80316982     1.26300
O98         O  0.38849579  0.40177333  0.72820820    -0.66600
O99         O  0.28707801  0.33128242  0.81353514    -0.78900
C100        C  0.34959442  0.39617442  0.90836270     0.84500
O101        O  0.32097602  0.38766100  0.88306935    -0.66100
Ni102      Ni  0.28063451  0.33730875  0.67818145     1.27400
Ni103      Ni  0.34663904  0.40285655  0.71362090     1.26100
H104        H  0.32916971  0.42464896  0.78905702     0.39100
O105        O  0.13655920  0.44884448  0.60790119    -0.80900
O106        O  0.14636537  0.45043502  0.86196704    -0.65600
O107        O  0.10639297  0.43497902  0.70797256    -1.12200
C108        C  0.10624856  0.03135672  0.75842928     1.06000
O109        O  0.10975013  0.46504948  0.88699446    -0.78800
O110        O  0.06512891  0.46223351  0.81006791    -0.66400
Ni111      Ni  0.11710597  0.41339323  0.64671913     1.34900
C112        C  0.05141117  0.45611282  0.75963512     0.84700
O113        O  0.11616007  0.39664543  0.77636019    -0.79300
O114        O  0.09826671  0.37741490  0.68260719    -0.89600
C115        C  0.13684620  0.46522944  0.89934339     0.84300
O116        O  0.15900644  0.42018777  0.67845746    -0.67800
O117        O  0.09813047  0.02051560  0.80364754    -0.87100
C118        C  0.17713822  0.43575703  0.72464521     0.85100
C119        C  0.10171603  0.37370979  0.73409483     1.06700
H120        H  0.15278613  0.49693437  0.79468725     0.38500
O121        O  0.12997448  0.48210518  0.78746232    -1.09700
O122        O  0.06775011  0.46407709  0.71789465    -0.66400
Ni123      Ni  0.11416833  0.47714597  0.70952755     1.26300
O124        O  0.16853278  0.45083142  0.76327715    -0.66600
O125        O  0.11835034  0.01962884  0.72008804    -0.78900
C126        C  0.12410133  0.46667831  0.59547679     0.84500
O127        O  0.10476899  0.47202287  0.62763956    -0.66100
Ni128      Ni  0.10706893  0.49378247  0.84328747     1.27400
Ni129      Ni  0.12530796  0.44029013  0.78375897     1.26100
H130        H  0.08330491  0.42265348  0.70757707     0.39100
O131        O  0.05852324  0.15263927  0.63108264    -0.80900
O132        O  0.01030808  0.14372890  0.85546122    -0.65600
O133        O  0.02238513  0.16184138  0.70764174    -1.12200
C134        C  0.12681023  0.23724129  0.80476508     1.06000
O135        O  0.02468600  0.19377083  0.89060350    -0.78800
O136        O  0.05930317  0.24430674  0.83355866    -0.66400
Ni137      Ni  0.01513899  0.12963640  0.64417219     1.34900
C138        C  0.05710278  0.24800121  0.78219597     0.84700
O139        O  0.47756126  0.11506256  0.75496247    -0.79300
O140        O  0.48247348  0.09967992  0.66385396    -0.89600
C141        C  0.00969846  0.16466447  0.89397681     0.84300
O142        O  0.03081096  0.10540377  0.67886280    -0.67800
O143        O  0.11304317  0.23531447  0.85045960    -0.87100
C144        C  0.04130853  0.10712515  0.72944991     0.85100
C145        C  0.46765666  0.09524366  0.70781197     1.06700
H146        H  0.07335490  0.17442151  0.80988891     0.38500
O147        O  0.05896529  0.18354254  0.80175032    -1.09700
O148        O  0.05379708  0.22693302  0.74002276    -0.66400
Ni149      Ni  0.06679919  0.19382874  0.72908369     1.26300
O150        O  0.03631527  0.12311665  0.77156614    -0.66600
O151        O  0.11131842  0.22364773  0.75486127    -0.78900
C152        C  0.06349511  0.17737339  0.61418803     0.84500
O153        O  0.07168109  0.20161873  0.65207361    -0.66100
Ni154      Ni  0.06838793  0.21448808  0.86733135     1.27400
Ni155      Ni  0.01580255  0.15053519  0.77976181     1.26100
H156        H  0.00801756  0.17172427  0.69972887     0.39100
C157        C  0.08074491  0.33564634  0.80023137    -0.12300
C158        C  0.08781881  0.34108573  0.74532381     0.04700
C159        C  0.08052529  0.31499714  0.70175163    -0.07500
C160        C  0.06797269  0.28484839  0.71420238    -0.08300
C161        C  0.06233182  0.27933342  0.76972359    -0.02800
C162        C  0.06808075  0.30535217  0.81268275     0.04000
N163        N  0.06166912  0.30173918  0.86948534     0.66500
H164        H  0.08517678  0.35509623  0.83412055     0.15400
H165        H  0.06461277  0.26582474  0.68036546     0.15100
N166        N  0.08744014  0.31872049  0.64506429     0.74200
O167        O  0.08502357  0.30832382  0.90710351    -0.39300
O168        O  0.03497058  0.29983114  0.88448492    -0.39200
O169        O  0.11642161  0.32890677  0.63382911    -0.39900
O170        O  0.06497506  0.31447444  0.60744110    -0.40000
C171        C  0.09236884  0.07380168  0.79776530    -0.12300
C172        C  0.09751594  0.05657179  0.74967651     0.04700
C173        C  0.08672676  0.05866496  0.69520086    -0.07500
C174        C  0.06890444  0.07555712  0.69002581    -0.08300
C175        C  0.06119162  0.09045587  0.73817818    -0.02800
C176        C  0.07406362  0.09026737  0.79260269     0.04000
N177        N  0.06726762  0.10502045  0.84318720     0.66500
H178        H  0.10065526  0.07270415  0.84010900     0.15400
H179        H  0.06024531  0.07608984  0.64755659     0.15100
N180        N  0.09088264  0.04156827  0.64469991     0.74200
O181        O  0.04115409  0.09084101  0.86353024    -0.39300
O182        O  0.08665291  0.13271313  0.86615735    -0.39200
O183        O  0.06666792  0.01758043  0.61781994    -0.39900
O184        O  0.11561143  0.05451458  0.62004307    -0.40000
C185        C  0.41365380  0.00738330  0.67530900    -0.12300
C186        C  0.39355656  0.50217006  0.72035088     0.04700
C187        C  0.39751601  0.03081831  0.75684799    -0.07500
C188        C  0.41799605  0.06051614  0.74669043    -0.08300
C189        C  0.43916687  0.06423310  0.70519570    -0.02800
C190        C  0.43537448  0.03710862  0.66685210     0.04000
N191        N  0.45558245  0.03898955  0.62259532     0.66500
H192        H  0.41209867  0.98692601  0.64706921     0.15400
H193        H  0.41817068  0.08090711  0.77218359     0.15100
N194        N  0.37370410  0.52660428  0.79809575     0.74200
O195        O  0.48232164  0.03787043  0.63213587    -0.39300
O196        O  0.44784004  0.04399155  0.57524779    -0.39200
O197        O  0.38623155  0.53738910  0.84928742    -0.39900
O198        O  0.34329607  0.51042346  0.78670076    -0.40000
C199        C  0.21421286  0.30210986  0.84462866    -0.12300
C200        C  0.23028498  0.29231129  0.80316910     0.04700
C201        C  0.21273354  0.26266327  0.76753288    -0.07500
C202        C  0.17969699  0.24466342  0.77115399    -0.08300
C203        C  0.16291103  0.25553682  0.80906465    -0.02800
C204        C  0.18076802  0.28406173  0.84769862     0.04000
N205        N  0.16452720  0.29675068  0.88548736     0.66500
H206        H  0.22674168  0.32522520  0.87084812     0.15400
H207        H  0.16666556  0.22256692  0.74186810     0.15100
N208        N  0.22729074  0.25160493  0.72361459     0.74200
O209        O  0.16299437  0.29166578  0.93560136    -0.39300
O210        O  0.14849718  0.30983380  0.86683943    -0.39200
O211        O  0.23445763  0.22963995  0.72944180    -0.39900
O212        O  0.22433727  0.25722780  0.67449176    -0.40000
C213        C  0.23850197  0.41247064  0.78665930    -0.12300
C214        C  0.25194907  0.40609736  0.73761982     0.04700
C215        C  0.24555646  0.41635490  0.68809564    -0.07500
C216        C  0.22367144  0.42946502  0.68684982    -0.08300
C217        C  0.20795937  0.43311826  0.73416412    -0.02800
C218        C  0.21684095  0.42599023  0.78538795     0.04000
N219        N  0.20154262  0.42928852  0.83478790     0.66500
H220        H  0.24331233  0.40536135  0.82545454     0.15400
H221        H  0.21738086  0.43507526  0.64727996     0.15100
N222        N  0.25995786  0.41257857  0.63769856     0.74200
O223        O  0.17771210  0.40599746  0.84593156    -0.39300
O224        O  0.21199199  0.45549966  0.86753738    -0.39200
O225        O  0.24311281  0.39102712  0.59624496    -0.39900
O226        O  0.28621105  0.43455051  0.62997921    -0.40000
C227        C  0.49873277  0.44622475  0.71768729    -0.12300
C228        C  0.01497701  0.44137489  0.75143612     0.04700
C229        C  0.49679944  0.42583133  0.80426558    -0.07500
C230        C  0.46301311  0.41604124  0.79964653    -0.08300
C231        C  0.44663677  0.42205267  0.75575973    -0.02800
C232        C  0.46490154  0.43686501  0.71380378     0.04000
N233        N  0.45069555  0.44643261  0.67107187     0.66500
H234        H  0.01299612  0.46827447  0.68869033     0.15400
H235        H  0.44971497  0.40523005  0.83284331     0.15100
N236        N  0.51165444  0.41995548  0.85194199     0.74200
O237        O  0.45560811  0.47457206  0.67883805    -0.39300
O238        O  0.44452272  0.43131965  0.62086173    -0.39200
O239        O  0.01549223  0.41978304  0.87762142    -0.39900
O240        O  0.51004067  0.39309856  0.85049000    -0.40000
C241        C  0.17137099  0.50434159  0.47525990    -0.12300
C242        C  0.15227267  0.01852879  0.45015595     0.04700
C243        C  0.12271138  0.01316221  0.47319506    -0.07500
C244        C  0.11420380  0.99735425  0.51965631    -0.08300
C245        C  0.13329888  0.48222243  0.54398982    -0.02800
C246        C  0.16306217  0.48817996  0.52110174     0.04000
N247        N  0.18569598  0.47851943  0.54418481     0.66500
H248        H  0.19446939  0.50880064  0.45966645     0.15400
H249        H  0.09139909  0.99365539  0.53565013     0.15100
N250        N  0.10164178  0.02507018  0.45213464     0.74200
O251        O  0.18633935  0.45388687  0.51912911    -0.39300
O252        O  0.20993982  0.49821156  0.57866261    -0.39200
O253        O  0.07432364  0.00625986  0.42469089    -0.39900
O254        O  0.10648550  0.05248676  0.47322039    -0.40000
C255        C  0.18500672  0.00772641  0.04147922    -0.12300
C256        C  0.18260202  0.03611882  0.04501581     0.04700
C257        C  0.16903356  0.04131287  0.99583540    -0.07500
C258        C  0.15602672  0.01784817  0.94697533    -0.08300
C259        C  0.15896414  0.48868181  0.94928328    -0.02800
C260        C  0.16795443  0.48084697  0.99963310     0.04000
N261        N  0.16001586  0.44913444  0.00261084     0.66500
H262        H  0.19466345  0.00283928  0.07892306     0.15400
H263        H  0.14452005  0.02226672  0.91110444     0.15100
N264        N  0.16613884  0.06963161  0.99586610     0.74200
O265        O  0.18193393  0.43997057  0.99934366    -0.39300
O266        O  0.13422818  0.43309537  0.02214925    -0.39200
O267        O  0.18479723  0.08941303  0.96906567    -0.39900
O268        O  0.14021550  0.07081888  0.00829367    -0.40000
C269        C  0.39041984  0.37846940  0.03103941    -0.12300
C270        C  0.36507049  0.35140261  0.04175610     0.04700
C271        C  0.33436358  0.33908248  0.00850978    -0.07500
C272        C  0.32951013  0.35451632  0.96660057    -0.08300
C273        C  0.35481386  0.38200248  0.95641174    -0.02800
C274        C  0.38579977  0.39372303  0.98900467     0.04000
N275        N  0.41299449  0.42136505  0.98099051     0.66500
H276        H  0.41406771  0.38828162  0.05621990     0.15400
H277        H  0.30581077  0.34470745  0.94165226     0.15100
N278        N  0.30735650  0.31184042  0.01843339     0.74200
O279        O  0.41968541  0.44688318  0.01378747    -0.39300
O280        O  0.43470230  0.41873204  0.95333609    -0.39200
O281        O  0.28690685  0.31490835  0.04904164    -0.39900
O282        O  0.30007617  0.28580793  0.98689943    -0.40000
C283        C  0.33495197  0.32311029  0.45737198    -0.12300
C284        C  0.36760325  0.34123051  0.45195616     0.04700
C285        C  0.38745046  0.36633918  0.49593920    -0.07500
C286        C  0.37401687  0.37380434  0.54297168    -0.08300
C287        C  0.34096946  0.35694354  0.54776152    -0.02800
C288        C  0.32128473  0.33097271  0.50445185     0.04000
N289        N  0.28705351  0.31379404  0.50511020     0.66500
H290        H  0.31931895  0.30448261  0.42278174     0.15400
H291        H  0.38971262  0.39325559  0.57582663     0.15100
N292        N  0.42097859  0.38564312  0.49210117     0.74200
O293        O  0.26796137  0.32189642  0.48018224    -0.39300
O294        O  0.27599022  0.28684204  0.51708058    -0.39200
O295        O  0.42902777  0.41210539  0.47900454    -0.39900
O296        O  0.44253915  0.38000366  0.51550160    -0.40000
C297        C  0.28328756  0.22318671  0.31480102    -0.12300
C298        C  0.28052848  0.22956107  0.26016802     0.04700
C299        C  0.25952755  0.20496553  0.21613610    -0.07500
C300        C  0.24525679  0.17435418  0.22536047    -0.08300
C301        C  0.25011175  0.16730774  0.27866165    -0.02800
C302        C  0.26790157  0.19243553  0.32463758     0.04000
N303        N  0.27166447  0.18729332  0.38106327     0.66500
H304        H  0.29897719  0.24179524  0.34933610     0.15400
H305        H  0.23004624  0.15594741  0.19015377     0.15100
N306        N  0.25233885  0.21064842  0.16151400     0.74200
O307        O  0.29704436  0.18551009  0.39869326    -0.39300
O308        O  0.25439944  0.19260389  0.41662876    -0.39200
O309        O  0.26480254  0.20288244  0.11982000    -0.39900
O310        O  0.22769601  0.21538994  0.15230363    -0.40000
C311        C  0.03802494  0.43912654  0.17607199    -0.12300
C312        C  0.06400625  0.44476120  0.21701647     0.04700
C313        C  0.05793601  0.42715599  0.26045442    -0.07500
C314        C  0.02606029  0.40649837  0.26487715    -0.08300
C315        C  0.50177132  0.40337121  0.23482873    -0.02800
C316        C  0.00602023  0.41930287  0.18166657     0.04000
N317        N  0.48478500  0.41092879  0.14074652     0.66500
H318        H  0.04199679  0.45221843  0.14192486     0.15400
H319        H  0.52229034  0.39767615  0.31344099     0.15100
N320        N  0.08217252  0.93334831  0.29991049     0.74200
O321        O  0.97044703  0.43833340  0.15157820    -0.39300
O322        O  0.48058374  0.39188155  0.09540557    -0.39200
O323        O  0.08332769  0.94875677  0.34810047    -0.39900
O324        O  0.09697773  0.91648340  0.29537541    -0.40000
C325        C  0.50268843  0.17398394  0.49314101    -0.12300
C326        C  0.50557309  0.15106770  0.45260663     0.04700
C327        C  0.03061773  0.13997012  0.46152071    -0.07500
C328        C  0.05176439  0.15210722  0.51274174    -0.08300
C329        C  0.04923248  0.17400793  0.55565190    -0.02800
C330        C  0.52385729  0.18802615  0.54412430     0.04000
N331        N  0.51851253  0.20977637  0.58459032     0.66500
H332        H  0.48353688  0.18096466  0.48583777     0.15400
H333        H  0.06949539  0.14334403  0.52006264     0.15100
N334        N  0.03540167  0.11879309  0.41890695     0.74200
O335        O  0.52947604  0.23786889  0.57864158    -0.39300
O336        O  0.99997899  0.19764589  0.61906461    -0.39200
O337        O  0.05999681  0.12903449  0.39271626    -0.39900
O338        O  0.02043637  0.08982982  0.41805154    -0.40000
C339        C  0.45329626  0.11607980  0.98876451    -0.12300
C340        C  0.46406201  0.13546061  0.04228379     0.04700
C341        C  0.48935017  0.16603133  0.04653896    -0.07500
C342        C  0.99675414  0.17626569  0.99366295    -0.08300
C343        C  0.99094079  0.15465471  0.94307069    -0.02800
C344        C  0.96838815  0.12315043  0.94171255     0.04000
N345        N  0.95950043  0.09994961  0.89158372     0.66500
H346        H  0.43373771  0.09268885  0.98439081     0.15400
H347        H  0.01410292  0.20045916  0.99660732     0.15100
N348        N  0.50150030  0.18700258  0.09999836     0.74200
O349        O  0.97232363  0.08137115  0.88686508    -0.39300
O350        O  0.93250349  0.09195444  0.86300730    -0.39200
O351        O  0.52876002  0.19214561  0.12458949    -0.39900
O352        O  0.49032236  0.20650956  0.11325554    -0.40000
C353        C  0.44300382  0.24511442  0.26369177    -0.12300
C354        C  0.43570306  0.21900110  0.22104169     0.04700
C355        C  0.41558434  0.21462447  0.17084972    -0.07500
C356        C  0.40052046  0.23438210  0.16716188    -0.08300
C357        C  0.40530108  0.25861724  0.21265484    -0.02800
C358        C  0.42828383  0.26490582  0.25991461     0.04000
N359        N  0.43716306  0.29130400  0.30459034     0.66500
H360        H  0.45914461  0.24934993  0.30182925     0.15400
H361        H  0.38344296  0.22948495  0.13001680     0.15100
N362        N  0.40799316  0.18886895  0.12535833     0.74200
O363        O  0.42547855  0.28733902  0.35094615    -0.39300
O364        O  0.46263068  0.31586746  0.30351771    -0.39200
O365        O  0.38261415  0.16379864  0.12371034    -0.39900
O366        O  0.42167941  0.19367526  0.08099496    -0.40000
C367        C  0.43074157  0.49896430  0.30466906    -0.12300
C368        C  0.42356411  0.00533510  0.26346328     0.04700
C369        C  0.40000127  0.47576567  0.21125017    -0.07500
C370        C  0.39414758  0.44601916  0.22139028    -0.08300
C371        C  0.40711321  0.44211406  0.27217259    -0.02800
C372        C  0.42438289  0.46914376  0.31521780     0.04000
N373        N  0.43636463  0.46710477  0.36978225     0.66500
H374        H  0.44528842  0.51916231  0.33744188     0.15400
H375        H  0.38021866  0.42591161  0.18806126     0.15100
N376        N  0.37873458  0.97906833  0.18352920     0.74200
O377        O  0.46604760  0.47356860  0.38022431    -0.39300
O378        O  0.41995901  0.46697633  0.41061081    -0.39200
O379        O  0.38146611  0.96881549  0.13346667    -0.39900
O380        O  0.35697391  0.47537471  0.15554751    -0.40000
C381        C  0.30699434  0.08247240  0.32331769    -0.12300
C382        C  0.28510070  0.07539851  0.27456797     0.04700
C383        C  0.29822215  0.08039669  0.22239043    -0.07500
C384        C  0.33222859  0.09367009  0.22101097    -0.08300
C385        C  0.35415442  0.10277514  0.27073322    -0.02800
C386        C  0.34077518  0.09614953  0.32229894     0.04000
N387        N  0.36090865  0.10472907  0.37533175     0.66500
H388        H  0.29793562  0.07902947  0.36389922     0.15400
H389        H  0.34147835  0.09825894  0.18094922     0.15100
N390        N  0.27786204  0.07483485  0.17104140     0.74200
O391        O  0.36489631  0.12898676  0.40963264    -0.39300
O392        O  0.36782363  0.08470832  0.39311663    -0.39200
O393        O  0.27639438  0.09776283  0.15407108    -0.39900
O394        O  0.26930542  0.04959952  0.13606922    -0.40000
C395        C  0.04449013  0.08227791  0.27799493    -0.12300
C396        C  0.04148094  0.09699152  0.23344213     0.04700
C397        C  0.06399819  0.10260760  0.19379130    -0.07500
C398        C  0.08671220  0.09046539  0.19576569    -0.08300
C399        C  0.08745791  0.07265502  0.23688515    -0.02800
C400        C  0.06743460  0.07043009  0.28054430     0.04000
N401        N  0.06792949  0.05395710  0.32495579     0.66500
H402        H  0.53197869  0.08112018  0.31150194     0.15400
H403        H  0.10293150  0.09388413  0.16329909     0.15100
N404        N  0.06387343  0.12020257  0.15098883     0.74200
O405        O  0.08200381  0.06931465  0.37374023    -0.39300
O406        O  0.04794069  0.02555758  0.31946970    -0.39200
O407        O  0.08305103  0.14898300  0.15971558    -0.39900
O408        O  0.05122262  0.10607647  0.10091077    -0.40000
O409        O  0.46551798  0.60619791  0.10788516    -0.80900
O410        O  0.47980012  0.61518890  0.35904362    -0.65600
O411        O  0.43744824  0.59626763  0.20821318    -1.12200
C412        C  0.44431287  0.69578164  0.23782452     1.06000
O413        O  0.46042724  0.64825176  0.39464339    -0.78800
O414        O  0.40791474  0.63220487  0.31895594    -0.66400
Ni415      Ni  0.44651949  0.57223871  0.14858008     1.34900
C416        C  0.38983657  0.62144570  0.27161027     0.84700
O417        O  0.44556724  0.55947536  0.28036072    -0.79300
O418        O  0.42811994  0.53761755  0.18721370    -0.89600
C419        C  0.47924407  0.63541971  0.39934229     0.84300
O420        O  0.98628472  0.57528244  0.17177761    -0.67800
O421        O  0.43811461  0.68906436  0.28653987    -0.87100
C422        C  0.00564981  0.59227577  0.21591935     0.85100
C423        C  0.43161110  0.53540182  0.23948108     1.06700
H424        H  0.48964545  0.65963941  0.28224020     0.38500
O425        O  0.46648338  0.64681414  0.28056333    -1.09700
O426        O  0.40153526  0.62711942  0.22423494    -0.66400
Ni427      Ni  0.44638486  0.63815437  0.20429540     1.26300
O428        O  0.49981874  0.61068805  0.26145902    -0.66600
O429        O  0.45417807  0.68036295  0.20262953    -0.78900
C430        C  0.45293710  0.62352093  0.09387378     0.84500
O431        O  0.43302562  0.62906411  0.12391248    -0.66100
Ni432      Ni  0.44969815  0.66649031  0.33626286     1.27400
Ni433      Ni  0.45765447  0.60396722  0.28288301     1.26100
H434        H  0.41441004  0.58451182  0.20940823     0.39100
O435        O  0.35443443  0.81630070  0.10300605    -0.80900
O436        O  0.37600988  0.81448183  0.36865260    -0.65600
O437        O  0.35380325  0.82457735  0.22067846    -1.12200
C438        C  0.46736261  0.89264083  0.24932467     1.06000
O439        O  0.40009560  0.86639673  0.39443887    -0.78800
O440        O  0.42625156  0.91166126  0.33038376    -0.66400
Ni441      Ni  0.33882044  0.78977178  0.15899404     1.34900
C442        C  0.40693201  0.91356391  0.29314669     0.84700
O443        O  0.32141999  0.78392547  0.29339685    -0.79300
O444        O  0.31781485  0.75904980  0.20522787    -0.89600
C445        C  0.38406232  0.83934022  0.40555161     0.84300
O446        O  0.37832778  0.78492687  0.17020263    -0.67800
O447        O  0.46730364  0.88813834  0.30040395    -0.87100
C448        C  0.38809315  0.77900486  0.21591769     0.85100
C449        C  0.30895221  0.75930748  0.25477698     1.06700
H450        H  0.41997075  0.83521104  0.27593023     0.38500
O451        O  0.40703931  0.84605078  0.28567431    -1.09700
O452        O  0.38794637  0.88974283  0.25587182    -0.66400
Ni453      Ni  0.39698884  0.85633089  0.21795362     1.26300
O454        O  0.37847630  0.78488007  0.26358068    -0.66600
O455        O  0.44155919  0.88555291  0.21573337    -0.78900
C456        C  0.36697217  0.84578251  0.10520196     0.84500
O457        O  0.38426658  0.86524861  0.14928296    -0.66100
Ni458      Ni  0.43350297  0.87725619  0.34686602     1.27400
Ni459      Ni  0.36435403  0.81641327  0.29231624     1.26100
H460        H  0.33837718  0.83331371  0.22363869     0.39100
O461        O  0.19095553  0.54681858  0.39442126    -0.80900
O462        O  0.20835070  0.56362601  0.14766145    -0.65600
O463        O  0.18074099  0.57013423  0.29663945    -1.12200
C464        C  0.09388969  0.97467103  0.21529825     1.06000
O465        O  0.15913201  0.55319462  0.11759508    -0.78800
O466        O  0.11092525  0.54346969  0.17780858    -0.66400
Ni467      Ni  0.21042120  0.58579995  0.36390461     1.34900
C468        C  0.10481344  0.55033457  0.22752929     0.84700
O469        O  0.22818151  0.61209019  0.24284667    -0.79300
O470        O  0.22995858  0.62547842  0.33830626    -0.89600
C471        C  0.18569933  0.55345971  0.10650649     0.84300
O472        O  0.24552956  0.57800827  0.33620233    -0.67800
O473        O  0.09764246  0.98624215  0.17034332    -0.87100
C474        C  0.25075223  0.56813760  0.28708962     0.85100
C475        C  0.23670277  0.63246901  0.28927551     1.06700
H476        H  0.17077898  0.51252631  0.20319141     0.38500
O477        O  0.16163540  0.52726922  0.20926237    -1.09700
O478        O  0.11560723  0.54337833  0.27067827    -0.66400
Ni479      Ni  0.14789895  0.52795399  0.28316955     1.26300
O480        O  0.22846260  0.55587670  0.24499445    -0.66600
O481        O  0.11371279  0.98743099  0.26127216    -0.78900
C482        C  0.16057847  0.53126966  0.39944419     0.84500
O483        O  0.13894999  0.52888535  0.36106976    -0.66100
Ni484      Ni  0.13024433  0.51813220  0.14567274     1.27400
Ni485      Ni  0.19601250  0.56902571  0.22402030     1.26100
H486        H  0.17013210  0.58367252  0.29803636     0.39100
O487        O  0.37388616  0.91430969  0.89194654    -0.80900
O488        O  0.35179957  0.89177359  0.63857122    -0.65600
O489        O  0.34398150  0.91586913  0.79130809    -1.12200
C490        C  0.25860724  0.81840438  0.78108853     1.06000
O491        O  0.30395047  0.84980913  0.61153223    -0.78800
O492        O  0.27591417  0.87746666  0.68895400    -0.66400
Ni493      Ni  0.37979011  0.94416803  0.84366369     1.34900
C494        C  0.27103833  0.88971359  0.73648800     0.84700
O495        O  0.37282827  0.94801249  0.70692251    -0.79300
O496        O  0.38637765  0.97500956  0.79731930    -0.89600
C497        C  0.33228331  0.86797307  0.60268819     0.84300
O498        O  0.41367057  0.93656809  0.81127929    -0.67800
O499        O  0.25397967  0.82468980  0.73306798    -0.87100
C500        C  0.41447414  0.91945697  0.76625010     0.85100
C501        C  0.38420222  0.97369317  0.74342470     1.06700
H502        H  0.33399308  0.85042473  0.72476668     0.38500
O503        O  0.32170398  0.86246576  0.72642714    -1.09700
O504        O  0.28048879  0.88502141  0.78431434    -0.66400
Ni505      Ni  0.31675440  0.87494619  0.80337194     1.26300
O506        O  0.38922573  0.90218135  0.73050003    -0.66600
O507        O  0.28607705  0.83330223  0.81223988    -0.78900
C508        C  0.34779296  0.89790195  0.91151583     0.84500
O509        O  0.31976407  0.88913224  0.88351440    -0.66100
Ni510      Ni  0.28176783  0.84037098  0.67665436     1.27400
Ni511      Ni  0.34849428  0.90487345  0.71520696     1.26100
H512        H  0.33100162  0.92713080  0.79055273     0.39100
O513        O  0.13606077  0.95087232  0.60649558    -0.80900
O514        O  0.14417023  0.94875997  0.85972959    -0.65600
O515        O  0.10501148  0.93510737  0.70533138    -1.12200
C516        C  0.10914035  0.53236998  0.75568270     1.06000
O517        O  0.10588211  0.96092576  0.88307145    -0.78800
O518        O  0.06162036  0.95842878  0.80560910    -0.66400
Ni519      Ni  0.11623957  0.91449297  0.64345451     1.34900
C520        C  0.04871300  0.95394105  0.75513367     0.84700
O521        O  0.11483338  0.89573841  0.77148731    -0.79300
O522        O  0.09701791  0.87765463  0.67748294    -0.89600
C523        C  0.13372646  0.96294861  0.89651102     0.84300
O524        O  0.15797328  0.92115819  0.67582255    -0.67800
O525        O  0.10259515  0.52323829  0.80276589    -0.87100
C526        C  0.17598206  0.93651602  0.72226192     0.85100
C527        C  0.10006175  0.87321585  0.72862418     1.06700
H528        H  0.14994024  0.99618937  0.79594532     0.38500
O529        O  0.12730553  0.98097764  0.78706977    -1.09700
O530        O  0.06588677  0.96370788  0.71519534    -0.66400
Ni531      Ni  0.11263015  0.97744015  0.70924539     1.26300
O532        O  0.16697843  0.95098856  0.76128779    -0.66600
O533        O  0.12011997  0.51938734  0.71729691    -0.78900
C534        C  0.12421250  0.96944377  0.59544289     0.84500
O535        O  0.10452768  0.97419741  0.62749880    -0.66100
Ni536      Ni  0.10267261  0.99036731  0.84205432     1.27400
Ni537      Ni  0.12346605  0.93935340  0.78112869     1.26100
H538        H  0.08191149  0.92258442  0.70427627     0.39100
O539        O  0.05831700  0.65341416  0.62357331    -0.80900
O540        O  0.01075011  0.64299862  0.84887536    -0.65600
O541        O  0.02155862  0.66062015  0.70023714    -1.12200
C542        C  0.12560613  0.73786102  0.79602779     1.06000
O543        O  0.02449841  0.69292478  0.88387977    -0.78800
O544        O  0.05836831  0.74372540  0.82661275    -0.66400
Ni545      Ni  0.01559520  0.62847147  0.63739190     1.34900
C546        C  0.05489177  0.74710176  0.77530604     0.84700
O547        O  0.47665447  0.61295537  0.75516298    -0.79300
O548        O  0.48021421  0.59785800  0.66303615    -0.89600
C549        C  0.00993879  0.66383116  0.88744157     0.84300
O550        O  0.03401120  0.60637094  0.67219016    -0.67800
O551        O  0.11221528  0.73504000  0.84205263    -0.87100
C552        C  0.04335583  0.60740220  0.72305272     0.85100
C553        C  0.46607715  0.59334342  0.70765232     1.06700
H554        H  0.07346857  0.67438247  0.80120535     0.38500
O555        O  0.05865968  0.68313175  0.79385713    -1.09700
O556        O  0.05087624  0.72581512  0.73300924    -0.66400
Ni557      Ni  0.06553368  0.69379184  0.72112033     1.26300
O558        O  0.03680099  0.62232276  0.76491283    -0.66600
O559        O  0.10991354  0.72467257  0.74612343    -0.78900
C560        C  0.06172393  0.67769529  0.60642167     0.84500
O561        O  0.06926712  0.70186028  0.64413271    -0.66100
Ni562      Ni  0.06790894  0.71391856  0.85971476     1.27400
Ni563      Ni  0.01578108  0.64952486  0.77275964     1.26100
H564        H  0.00686562  0.66949880  0.69194958     0.39100
C565        C  0.07888893  0.83477597  0.79419928    -0.12300
C566        C  0.08528194  0.84030911  0.73904866     0.04700
C567        C  0.07641414  0.81409787  0.69487178    -0.07500
C568        C  0.06395147  0.78385277  0.70718086    -0.08300
C569        C  0.05948129  0.77834915  0.76301717    -0.02800
C570        C  0.06584608  0.80439363  0.80633166     0.04000
N571        N  0.05921752  0.80064004  0.86301085     0.66500
H572        H  0.08403379  0.85422374  0.82854383     0.15400
H573        H  0.05950873  0.76469273  0.67281858     0.15100
N574        N  0.08135785  0.81772088  0.63747996     0.74200
O575        O  0.08246692  0.80758012  0.90108263    -0.39300
O576        O  0.03223119  0.79819811  0.87740705    -0.39200
O577        O  0.10926203  0.82522336  0.62205856    -0.39900
O578        O  0.05850954  0.81602933  0.60354624    -0.40000
C579        C  0.09583257  0.57566465  0.79247047    -0.12300
C580        C  0.09980710  0.55703124  0.74511103     0.04700
C581        C  0.08755841  0.55746569  0.69040727    -0.07500
C582        C  0.06995206  0.57453786  0.68457440    -0.08300
C583        C  0.06348323  0.59093801  0.73232180    -0.02800
C584        C  0.07743969  0.59203217  0.78673673     0.04000
N585        N  0.07171375  0.60807190  0.83693726     0.66500
H586        H  0.10513793  0.57579913  0.83496435     0.15400
H587        H  0.06011051  0.57369671  0.64204226     0.15100
N588        N  0.08965040  0.53826804  0.64074533     0.74200
O589        O  0.04654242  0.59445663  0.86012911    -0.39300
O590        O  0.09107207  0.63623799  0.85678802    -0.39200
O591        O  0.06611026  0.51177702  0.62255699    -0.39900
O592        O  0.11025829  0.55061805  0.60800876    -0.40000
C593        C  0.41117400  0.50560961  0.67366931    -0.12300
C594        C  0.39717390  0.00396790  0.72343700     0.04700
C595        C  0.39415758  0.52913669  0.75392394    -0.07500
C596        C  0.41574447  0.55883058  0.74533709    -0.08300
C597        C  0.43744700  0.56242380  0.70482367    -0.02800
C598        C  0.43371082  0.53529128  0.66647409     0.04000
N599        N  0.45480816  0.53705040  0.62371664     0.66500
H600        H  0.40970970  0.48513087  0.64567861     0.15400
H601        H  0.41619812  0.57924356  0.77123566     0.15100
N602        N  0.37749358  0.02814692  0.80168581     0.74200
O603        O  0.48189792  0.53704911  0.63578240    -0.39300
O604        O  0.44730455  0.54059166  0.57488552    -0.39200
O605        O  0.39032308  0.03660342  0.85283234    -0.39900
O606        O  0.34695515  0.01312329  0.79043041    -0.40000
C607        C  0.21123926  0.80521624  0.83602997    -0.12300
C608        C  0.22919986  0.79475557  0.79982621     0.04700
C609        C  0.21328143  0.76419040  0.76693717    -0.07500
C610        C  0.17987307  0.74583481  0.76746606    -0.08300
C611        C  0.16149738  0.75709997  0.80062049    -0.02800
C612        C  0.17769841  0.78665614  0.83674015     0.04000
N613        N  0.15970700  0.79943694  0.86975387     0.66500
H614        H  0.22252776  0.82897420  0.85986030     0.15400
H615        H  0.16803395  0.72287459  0.74052185     0.15100
N616        N  0.23034878  0.75205640  0.73006293     0.74200
O617        O  0.15875773  0.79763947  0.92162757    -0.39300
O618        O  0.14082591  0.80794271  0.84529448    -0.39200
O619        O  0.24136361  0.73448946  0.74700909    -0.39900
O620        O  0.22698570  0.75209774  0.67755624    -0.40000
C621        C  0.24042043  0.91689811  0.78516271    -0.12300
C622        C  0.25223879  0.90848411  0.73545349     0.04700
C623        C  0.24353022  0.91611685  0.68431490    -0.07500
C624        C  0.22147986  0.92898950  0.68290187    -0.08300
C625        C  0.20725052  0.93448105  0.73115525    -0.02800
C626        C  0.21821942  0.92985827  0.78343750     0.04000
N627        N  0.20464713  0.93522188  0.83396649     0.66500
H628        H  0.24698023  0.91185770  0.82511685     0.15400
H629        H  0.21364971  0.93265565  0.64242362     0.15100
N630        N  0.25509233  0.90923981  0.63219230     0.74200
O631        O  0.18261032  0.91260616  0.85055524    -0.39300
O632        O  0.21392464  0.96270779  0.86101474    -0.39200
O633        O  0.23659488  0.88563549  0.59537727    -0.39900
O634        O  0.28007783  0.93007655  0.61795412    -0.40000
C635        C  0.49821345  0.94773678  0.71614464    -0.12300
C636        C  0.01231100  0.93912190  0.74498392     0.04700
C637        C  0.49689450  0.92046893  0.79341157    -0.07500
C638        C  0.46333263  0.91160869  0.79262943    -0.08300
C639        C  0.44699033  0.92143510  0.75518574    -0.02800
C640        C  0.46473682  0.93908692  0.71572303     0.04000
N641        N  0.45079259  0.95312191  0.68166023     0.66500
H642        H  0.01119195  0.96572540  0.68102484     0.15400
H643        H  0.45031110  0.89826615  0.82350522     0.15100
N644        N  0.51216875  0.90988395  0.83296826     0.74200
O645        O  0.45837391  0.98170854  0.69766665    -0.39300
O646        O  0.44100799  0.94091607  0.62986196    -0.39200
O647        O  0.01198326  0.91545225  0.86871392    -0.39900
O648        O  0.51060065  0.88290851  0.82027664    -0.40000
C649        C  0.17276434  0.00811777  0.47658695    -0.12300
C650        C  0.15040913  0.51424013  0.44888631     0.04700
C651        C  0.12000821  0.50699340  0.46997862    -0.07500
C652        C  0.11214373  0.49174676  0.51708001    -0.08300
C653        C  0.13436562  0.98632044  0.54537927    -0.02800
C654        C  0.16423693  0.99221843  0.52287000     0.04000
N655        N  0.18688639  0.98292794  0.54711001     0.66500
H656        H  0.19561843  0.01188314  0.46059800     0.15400
H657        H  0.08897021  0.48711126  0.53243020     0.15100
N658        N  0.09698324  0.51575091  0.44547373     0.74200
O659        O  0.18605368  0.95701281  0.52584018    -0.39300
O660        O  0.21214964  0.00335023  0.57845702    -0.39200
O661        O  0.07280841  0.49534806  0.41168632    -0.39900
O662        O  0.09601285  0.54052273  0.46874690    -0.40000
C663        C  0.18154898  0.50392793  0.04975032    -0.12300
C664        C  0.18567235  0.53470905  0.05113110     0.04700
C665        C  0.17864501  0.54277078  0.99979143    -0.07500
C666        C  0.16594869  0.52006431  0.94974014    -0.08300
C667        C  0.15539911  0.98836031  0.94500003    -0.02800
C668        C  0.17158665  0.98390458  0.99205934     0.04000
N669        N  0.17217745  0.95462439  0.99258375     0.66500
H670        H  0.18563762  0.49691833  0.08911442     0.15400
H671        H  0.15909512  0.52659340  0.91168648     0.15100
N672        N  0.18133436  0.57328228  0.99884542     0.74200
O673        O  0.19745088  0.95170570  0.98154385    -0.39300
O674        O  0.15154717  0.93506395  0.01729488    -0.39200
O675        O  0.20599171  0.59295462  0.98159846    -0.39900
O676        O  0.15638025  0.57795811  0.00218386    -0.40000
C677        C  0.38398700  0.88824723  0.04923300    -0.12300
C678        C  0.36137896  0.85832382  0.05486877     0.04700
C679        C  0.33299947  0.84239311  0.01480058    -0.07500
C680        C  0.32802807  0.85649493  0.97048279    -0.08300
C681        C  0.35118591  0.88606535  0.96403470    -0.02800
C682        C  0.37950197  0.90196434  0.00430372     0.04000
N683        N  0.40437298  0.93195385  0.00004875     0.66500
H684        H  0.40571093  0.90113731  0.07967046     0.15400
H685        H  0.30646896  0.84362826  0.93966192     0.15100
N686        N  0.30875013  0.81203697  0.01849377     0.74200
O687        O  0.40272445  0.95621488  0.02428479    -0.39300
O688        O  0.43113750  0.93411962  0.98490221    -0.39200
O689        O  0.28296653  0.80935261  0.03872708    -0.39900
O690        O  0.30940554  0.78833345  0.98925177    -0.40000
C691        C  0.33690893  0.82870448  0.45627499    -0.12300
C692        C  0.37047814  0.83846345  0.45903787     0.04700
C693        C  0.39092636  0.85682353  0.50932918    -0.07500
C694        C  0.37787202  0.86689469  0.55463349    -0.08300
C695        C  0.34451308  0.85892386  0.55099213    -0.02800
C696        C  0.32372751  0.83891387  0.50166687     0.04000
N697        N  0.28970165  0.83059683  0.49514743     0.66500
H698        H  0.32122948  0.81546274  0.41690359     0.15400
H699        H  0.39402464  0.88077292  0.59317425     0.15100
N700        N  0.42518068  0.86609685  0.51443549     0.74200
O701        O  0.27973254  0.84705179  0.47127552    -0.39300
O702        O  0.26969868  0.80341464  0.49958889    -0.39200
O703        O  0.44439617  0.89369143  0.51080664    -0.39900
O704        O  0.43616250  0.84988236  0.53674674    -0.40000
C705        C  0.29117214  0.72101947  0.32036648    -0.12300
C706        C  0.28617764  0.72868015  0.26763966     0.04700
C707        C  0.26345067  0.70482589  0.22419267    -0.07500
C708        C  0.24776170  0.67414195  0.23297852    -0.08300
C709        C  0.25392876  0.66598577  0.28443153    -0.02800
C710        C  0.27548708  0.69000264  0.32902164     0.04000
N711        N  0.28385513  0.68310246  0.38160606     0.66500
H712        H  0.30900111  0.73875320  0.35381923     0.15400
H713        H  0.23059982  0.65645588  0.19867005     0.15100
N714        N  0.25612133  0.71115247  0.17028536     0.74200
O715        O  0.30795867  0.67713087  0.38683417    -0.39300
O716        O  0.27273867  0.69044635  0.42558934    -0.39200
O717        O  0.26696614  0.70214560  0.12741682    -0.39900
O718        O  0.23239122  0.71746777  0.16290702    -0.40000
C719        C  0.03774283  0.93934060  0.17016609    -0.12300
C720        C  0.06325444  0.94630885  0.21331936     0.04700
C721        C  0.05733260  0.92803079  0.25565844    -0.07500
C722        C  0.02592761  0.90536572  0.25687163    -0.08300
C723        C  0.49946940  0.90748793  0.23029059    -0.02800
C724        C  0.00603439  0.91750119  0.17273482     0.04000
N725        N  0.47944030  0.92632598  0.15309430     0.66500
H726        H  0.04167541  0.95251139  0.13614990     0.15400
H727        H  0.52177277  0.89182890  0.29267228     0.15100
N728        N  0.08340750  0.43095550  0.30204744     0.74200
O729        O  0.96988098  0.93386094  0.13459313    -0.39300
O730        O  0.47076424  0.91128387  0.10262498    -0.39200
O731        O  0.08622821  0.44585547  0.35155221    -0.39900
O732        O  0.09733710  0.41341646  0.29371871    -0.40000
C733        C  0.50100177  0.67046659  0.49433307    -0.12300
C734        C  0.50149028  0.64616227  0.45390262     0.04700
C735        C  0.02678788  0.63736668  0.45589555    -0.07500
C736        C  0.04831138  0.65010117  0.50655429    -0.08300
C737        C  0.04712753  0.67355279  0.54775638    -0.02800
C738        C  0.52307472  0.68405227  0.54405822     0.04000
N739        N  0.52034439  0.70770100  0.58391021     0.66500
H740        H  0.48331772  0.67932942  0.48763908     0.15400
H741        H  0.06504421  0.64037304  0.51514166     0.15100
N742        N  0.02917497  0.61338865  0.41638333     0.74200
O743        O  0.53442332  0.73570791  0.57747951    -0.39300
O744        O  0.00092592  0.70097558  0.60993936    -0.39200
O745        O  0.05226241  0.62077613  0.38636183    -0.39900
O746        O  0.01430649  0.58538197  0.42255086    -0.40000
C747        C  0.45210341  0.61795455  0.98958426    -0.12300
C748        C  0.46348460  0.63756910  0.04288577     0.04700
C749        C  0.48957316  0.66762465  0.04670791    -0.07500
C750        C  0.99855883  0.67454222  0.98888755    -0.08300
C751        C  0.99152784  0.65362818  0.93688873    -0.02800
C752        C  0.96793851  0.62239672  0.93409152     0.04000
N753        N  0.95594702  0.60086470  0.88159828     0.66500
H754        H  0.43214077  0.59482710  0.98570879     0.15400
H755        H  0.01663122  0.69855242  0.99282724     0.15100
N756        N  0.50304697  0.68825773  0.10033592     0.74200
O757        O  0.96632585  0.58059923  0.86987705    -0.39300
O758        O  0.92871822  0.59597310  0.85765711    -0.39200
O759        O  0.52724851  0.68834498  0.12779524    -0.39900
O760        O  0.49683542  0.71136382  0.11212868    -0.40000
C761        C  0.44526165  0.74745717  0.26674035    -0.12300
C762        C  0.43799426  0.72172784  0.22323090     0.04700
C763        C  0.41964314  0.71905422  0.17192799    -0.07500
C764        C  0.40555137  0.73964956  0.16818042    -0.08300
C765        C  0.40978531  0.76318168  0.21461895    -0.02800
C766        C  0.43175014  0.76821444  0.26278871     0.04000
N767        N  0.44012600  0.79386393  0.30891075     0.66500
H768        H  0.46025397  0.75056552  0.30568108     0.15400
H769        H  0.38937675  0.73574972  0.13034251     0.15100
N770        N  0.41262809  0.69406965  0.12521446     0.74200
O771        O  0.42772916  0.78889612  0.35441888    -0.39300
O772        O  0.46566658  0.81869096  0.30977643    -0.39200
O773        O  0.38536195  0.67038943  0.11775875    -0.39900
O774        O  0.42960154  0.69908333  0.08464844    -0.40000
C775        C  0.43884925  0.00245355  0.31287477    -0.12300
C776        C  0.41996424  0.50303693  0.25215648     0.04700
C777        C  0.39849359  0.97777517  0.22997960    -0.07500
C778        C  0.39197169  0.94834685  0.24266957    -0.08300
C779        C  0.40907070  0.94521455  0.28957129    -0.02800
C780        C  0.43157996  0.97305586  0.32668318     0.04000
N781        N  0.44765609  0.97219995  0.37846017     0.66500
H782        H  0.45731646  0.02313890  0.34050482     0.15400
H783        H  0.37388632  0.92772845  0.21433203     0.15100
N784        N  0.38545434  0.47757292  0.15874092     0.74200
O785        O  0.47777967  0.97983846  0.38265458    -0.39300
O786        O  0.43412743  0.97200767  0.42311190    -0.39200
O787        O  0.39731723  0.47350455  0.11357029    -0.39900
O788        O  0.35343381  0.98228935  0.19306529    -0.40000
C789        C  0.30722974  0.58031594  0.32637892    -0.12300
C790        C  0.28509093  0.57421352  0.27853947     0.04700
C791        C  0.29787634  0.58069183  0.22659612    -0.07500
C792        C  0.33176006  0.59473004  0.22470433    -0.08300
C793        C  0.35392763  0.60278676  0.27350626    -0.02800
C794        C  0.34098513  0.59426206  0.32463191     0.04000
N795        N  0.36151572  0.60047916  0.37627230     0.66500
H796        H  0.29835962  0.57559470  0.36667385     0.15400
H797        H  0.34070376  0.60053804  0.18495888     0.15100
N798        N  0.27718164  0.57555329  0.17596625     0.74200
O799        O  0.36642817  0.62382190  0.41395173    -0.39300
O800        O  0.36733781  0.57893183  0.38985238    -0.39200
O801        O  0.27805432  0.59882689  0.15682874    -0.39900
O802        O  0.26555493  0.54922526  0.14329739    -0.40000
C803        C  0.03870570  0.57432881  0.27110874    -0.12300
C804        C  0.03590918  0.58905423  0.22630342     0.04700
C805        C  0.05851794  0.59443956  0.18682038    -0.07500
C806        C  0.08221984  0.58358513  0.19083932    -0.08300
C807        C  0.08361708  0.56666251  0.23312515    -0.02800
C808        C  0.06233332  0.56324690  0.27506746     0.04000
N809        N  0.06255712  0.54654954  0.31929076     0.66500
H810        H  0.52435587  0.57446606  0.31079255     0.15400
H811        H  0.09875593  0.58724904  0.15887132     0.15100
N812        N  0.05723463  0.61015512  0.14149576     0.74200
O813        O  0.07700787  0.56164886  0.36801608    -0.39300
O814        O  0.04242899  0.51817473  0.31357424    -0.39200
O815        O  0.07848347  0.63781616  0.14361549    -0.39900
O816        O  0.04021429  0.59448407  0.09477001    -0.40000
O817        O  0.96473738  0.10539207  0.10653311    -0.80900
O818        O  0.98131128  0.11718145  0.35956546    -0.65600
O819        O  0.93865548  0.09591127  0.20825462    -1.12200
C820        C  0.93857640  0.19174630  0.23294179     1.06000
O821        O  0.96836764  0.15576460  0.39241232    -0.78800
O822        O  0.91006927  0.12964405  0.32035480    -0.66400
Ni823      Ni  0.94838635  0.07214324  0.14929250     1.34900
C824        C  0.89077203  0.11880742  0.27399665     0.84700
O825        O  0.94865121  0.06114518  0.28286831    -0.79300
O826        O  0.93241305  0.03807092  0.18996084    -0.89600
C827        C  0.98351108  0.13945979  0.39839234     0.84300
O828        O  0.48997842  0.07768880  0.17814317    -0.67800
O829        O  0.93138261  0.18413046  0.28061368    -0.87100
C830        C  0.51005068  0.09578768  0.22075410     0.85100
C831        C  0.93565391  0.03666722  0.24275203     1.06700
H832        H  0.98992578  0.16077352  0.27882987     0.38500
O833        O  0.96694749  0.14750364  0.27819303    -1.09700
O834        O  0.90124303  0.12469662  0.22576221    -0.66400
Ni835      Ni  0.94567352  0.13706118  0.20283212     1.26300
O836        O  0.00162976  0.11297107  0.26179663    -0.66600
O837        O  0.95145406  0.17847420  0.19995909    -0.78900
C838        C  0.95090323  0.12171961  0.09248961     0.84500
O839        O  0.93088535  0.12666748  0.12303791    -0.66100
Ni840      Ni  0.94960543  0.16714080  0.33245977     1.27400
Ni841      Ni  0.95928776  0.10513584  0.28306475     1.26100
H842        H  0.91578386  0.08343383  0.20975528     0.39100
O843        O  0.84935193  0.31297814  0.09773916    -0.80900
O844        O  0.87268086  0.31430280  0.36545213    -0.65600
O845        O  0.85168805  0.32285348  0.21537914    -1.12200
C846        C  0.96676173  0.38833657  0.24471193     1.06000
O847        O  0.89719893  0.36635360  0.38663058    -0.78800
O848        O  0.92545443  0.40992678  0.32146938    -0.66400
Ni849      Ni  0.83430305  0.28733615  0.15505580     1.34900
C850        C  0.90649966  0.41159262  0.28325646     0.84700
O851        O  0.81800660  0.28326179  0.29009998    -0.79300
O852        O  0.81361393  0.25746420  0.20263388    -0.89600
C853        C  0.88123927  0.34003366  0.40043759     0.84300
O854        O  0.87293057  0.28116310  0.16541515    -0.67800
O855        O  0.96568960  0.38446087  0.29612267    -0.87100
C856        C  0.88267500  0.27529068  0.21127451     0.85100
C857        C  0.80523441  0.25822088  0.25241143     1.06700
H858        H  0.91712993  0.33202471  0.27278415     0.38500
O859        O  0.90463040  0.34354457  0.28085377    -1.09700
O860        O  0.88807547  0.38770379  0.24570321    -0.66400
Ni861      Ni  0.89589385  0.35285762  0.21153571     1.26300
O862        O  0.87446852  0.28254897  0.25975148    -0.66600
O863        O  0.94134851  0.38060590  0.20936021    -0.78900
C864        C  0.86517650  0.34220405  0.09854244     0.84500
O865        O  0.88469862  0.36113639  0.14115180    -0.66100
Ni866      Ni  0.93125629  0.37533055  0.34097310     1.27400
Ni867      Ni  0.86144578  0.31506648  0.28794784     1.26100
H868        H  0.83733628  0.33281037  0.21804493     0.39100
O869        O  0.69082208  0.04565375  0.39502874    -0.80900
O870        O  0.70962708  0.06158686  0.14659266    -0.65600
O871        O  0.68166755  0.06868427  0.29574608    -1.12200
C872        C  0.59643218  0.47374782  0.22823740     1.06000
O873        O  0.66097273  0.05295144  0.11725108    -0.78800
O874        O  0.61354306  0.04473666  0.17799691    -0.66400
Ni875      Ni  0.71077128  0.08439859  0.36350527     1.34900
C876        C  0.60732668  0.05152834  0.22766367     0.84700
O877        O  0.72946554  0.11053621  0.24193913    -0.79300
O878        O  0.73046919  0.12393061  0.33719965    -0.89600
C879        C  0.68704258  0.05232901  0.10547207     0.84300
O880        O  0.74570583  0.07605182  0.33663226    -0.67800
O881        O  0.60035530  0.48407353  0.18196248    -0.87100
C882        C  0.75143954  0.06604370  0.28803562     0.85100
C883        C  0.73719271  0.13097678  0.28816714     1.06700
H884        H  0.67114344  0.01090875  0.20181997     0.38500
O885        O  0.66244215  0.02599014  0.20829075    -1.09700
O886        O  0.61681833  0.04311906  0.27015612    -0.66400
Ni887      Ni  0.64841272  0.02673747  0.28219335     1.26300
O888        O  0.72968595  0.05423609  0.24498607    -0.66600
O889        O  0.61536199  0.48810884  0.27483171    -0.78900
C890        C  0.66032906  0.03034911  0.39969183     0.84500
O891        O  0.63900641  0.02757017  0.36022686    -0.66100
Ni892      Ni  0.63134162  0.01819706  0.14495937     1.27400
Ni893      Ni  0.69725923  0.06742721  0.22319527     1.26100
H894        H  0.67130875  0.08241723  0.29669031     0.39100
O895        O  0.87448813  0.41712203  0.89120761    -0.80900
O896        O  0.85061368  0.39345660  0.63661648    -0.65600
O897        O  0.84342921  0.41676563  0.78996426    -1.12200
C898        C  0.76133905  0.31753949  0.78198212     1.06000
O899        O  0.80424711  0.34974064  0.61087629    -0.78800
O900        O  0.77457370  0.37507373  0.68829420    -0.66400
Ni901      Ni  0.87896262  0.44635198  0.84179102     1.34900
C902        C  0.76992330  0.38729284  0.73605457     0.84700
O903        O  0.86991531  0.44908459  0.70454969    -0.79300
O904        O  0.88425726  0.47672857  0.79446483    -0.89600
C905        C  0.83154591  0.36941166  0.60082145     0.84300
O906        O  0.91343587  0.43972012  0.80952010    -0.67800
O907        O  0.75609341  0.32275122  0.73328109    -0.87100
C908        C  0.91474557  0.42315974  0.76412894     0.85100
C909        C  0.88133902  0.47493160  0.74042156     1.06700
H910        H  0.83630985  0.35228323  0.72392276     0.38500
O911        O  0.82298442  0.36330997  0.72558903    -1.09700
O912        O  0.78034367  0.38335142  0.78372482    -0.66400
Ni913      Ni  0.81794964  0.37551540  0.80262016     1.26300
O914        O  0.88969519  0.40561219  0.72803278    -0.66600
O915        O  0.78886289  0.33352270  0.81266476    -0.78900
C916        C  0.84876954  0.39908424  0.90983959     0.84500
O917        O  0.82062511  0.38995825  0.88222338    -0.66100
Ni918      Ni  0.78296800  0.33939483  0.67640893     1.27400
Ni919      Ni  0.84766893  0.40602002  0.71365298     1.26100
H920        H  0.82956536  0.42714684  0.78944422     0.39100
O921        O  0.63482331  0.45002213  0.61643426    -0.80900
O922        O  0.64553514  0.44842063  0.87012202    -0.65600
O923        O  0.60542254  0.43578288  0.71766078    -1.12200
C924        C  0.61235860  0.03362358  0.76597791     1.06000
O925        O  0.60935279  0.46319727  0.89911294    -0.78800
O926        O  0.56586546  0.46349931  0.82300584    -0.66400
Ni927      Ni  0.61472815  0.41410061  0.65452078     1.34900
C928        C  0.55217459  0.45796112  0.77273875     0.84700
O929        O  0.61503306  0.39610163  0.78295789    -0.79300
O930        O  0.59571719  0.37757044  0.68953595    -0.89600
C931        C  0.63563328  0.46147013  0.90994960     0.84300
O932        O  0.65645791  0.41990515  0.68416340    -0.67800
O933        O  0.60512891  0.02346409  0.81207743    -0.87100
C934        C  0.67531764  0.43501124  0.72981289     0.85100
C935        C  0.60013338  0.37350306  0.74054785     1.06700
H936        H  0.65336865  0.49605907  0.80722115     0.38500
O937        O  0.63039325  0.48174284  0.79965646    -1.09700
O938        O  0.56871818  0.46663782  0.73142451    -0.66400
Ni939      Ni  0.61502523  0.47859643  0.72249817     1.26300
O940        O  0.66744627  0.44976526  0.77031618    -0.66600
O941        O  0.62147209  0.01993744  0.72533747    -0.78900
C942        C  0.62434467  0.46984155  0.60726833     0.84500
O943        O  0.60588947  0.47566556  0.64095800    -0.66100
Ni944      Ni  0.60828604  0.49344023  0.85711705     1.27400
Ni945      Ni  0.62460229  0.43970361  0.79262962     1.26100
H946        H  0.58228041  0.42403842  0.71768018     0.39100
O947        O  0.56295704  0.15948666  0.62988950    -0.80900
O948        O  0.51373675  0.14416435  0.85733280    -0.65600
O949        O  0.52510419  0.16171626  0.70850624    -1.12200
C950        C  0.62881151  0.23936099  0.80446280     1.06000
O951        O  0.52885683  0.19436286  0.89259669    -0.78800
O952        O  0.56525602  0.24586756  0.83916133    -0.66400
Ni953      Ni  0.52247859  0.13069267  0.64652699     1.34900
C954        C  0.55810538  0.24828296  0.78869453     0.84700
O955        O  0.97359122  0.11503487  0.75359300    -0.79300
O956        O  0.97182348  0.10462049  0.65825776    -0.89600
C957        C  0.51324330  0.16530926  0.89564791     0.84300
O958        O  0.54710699  0.11488782  0.68364855    -0.67800
O959        O  0.61682577  0.23393684  0.85122083    -0.87100
C960        C  0.55241114  0.11291037  0.73454984     0.85100
C961        C  0.96012981  0.09801843  0.70434981     1.06700
H962        H  0.57746671  0.17539597  0.80650984     0.38500
O963        O  0.56237680  0.18417548  0.80174501    -1.09700
O964        O  0.54961581  0.22560821  0.74698894    -0.66400
Ni965      Ni  0.56773415  0.19658277  0.73007128     1.26300
O966        O  0.54012740  0.12290838  0.77458904    -0.66600
O967        O  0.61163807  0.22917543  0.75527178    -0.78900
C968        C  0.56324755  0.18329118  0.61481168     0.84500
O969        O  0.56919111  0.20644891  0.65405631    -0.66100
Ni970      Ni  0.57253515  0.21410886  0.86928023     1.27400
Ni971      Ni  0.51941708  0.15054291  0.78104201     1.26100
H972        H  0.50918368  0.16929447  0.69887262     0.39100
C973        C  0.58005690  0.33541720  0.80651278    -0.12300
C974        C  0.58709228  0.34095187  0.75162738     0.04700
C975        C  0.58142075  0.31521833  0.70847837    -0.07500
C976        C  0.56924558  0.28502643  0.72077840    -0.08300
C977        C  0.56338578  0.27949441  0.77623899    -0.02800
C978        C  0.56862176  0.30529152  0.81923094     0.04000
N979        N  0.56294228  0.30159492  0.87630485     0.66500
H980        H  0.58379588  0.35470687  0.84025956     0.15400
H981        H  0.56659215  0.26609609  0.68717910     0.15100
N982        N  0.59044083  0.31960370  0.65304564     0.74200
O983        O  0.58680356  0.30881773  0.91327452    -0.39300
O984        O  0.53615479  0.29885417  0.89219202    -0.39200
O985        O  0.62013112  0.33198856  0.64593915    -0.39900
O986        O  0.56897295  0.31403616  0.61247214    -0.40000
C987        C  0.59934629  0.07687735  0.80684885    -0.12300
C988        C  0.60620543  0.06072321  0.75908258     0.04700
C989        C  0.60065949  0.06691149  0.70507478    -0.07500
C990        C  0.58434527  0.08503300  0.69886259    -0.08300
C991        C  0.57362313  0.09778830  0.74563427    -0.02800
C992        C  0.58333034  0.09540102  0.80058047     0.04000
N993        N  0.57660536  0.11099763  0.85021247     0.66500
H994        H  0.60477527  0.07377229  0.84929039     0.15400
H995        H  0.57873872  0.08774266  0.65620746     0.15100
N996        N  0.60847190  0.05273672  0.65511792     0.74200
O997        O  0.55157453  0.09671041  0.87321764    -0.39300
O998        O  0.59460427  0.13963784  0.86898573    -0.39200
O999        O  0.58667528  0.02779396  0.62571980    -0.39900
O1000       O  0.63312095  0.06892279  0.63299356    -0.40000
C1001       C  0.90934195  0.01034280  0.67110265    -0.12300
C1002       C  0.89346130  0.50472998  0.71890965     0.04700
C1003       C  0.89043151  0.03206298  0.75093915    -0.07500
C1004       C  0.91000609  0.06227749  0.74153099    -0.08300
C1005       C  0.93175581  0.06698014  0.70078168    -0.02800
C1006       C  0.92969693  0.04045327  0.66284828     0.04000
N1007       N  0.95080251  0.04354234  0.61975811     0.66500
H1008       H  0.90951058  0.99043048  0.64368955     0.15400
H1009       H  0.90895296  0.08222842  0.76690085     0.15100
N1010       N  0.87010280  0.52802053  0.79165864     0.74200
O1011       O  0.97745466  0.04235535  0.62985519    -0.39300
O1012       O  0.94311586  0.04806940  0.57191740    -0.39200
O1013       O  0.88124598  0.53506239  0.84360066    -0.39900
O1014       O  0.83978277  0.51279412  0.77729151    -0.40000
C1015       C  0.71582704  0.30470578  0.84147924    -0.12300
C1016       C  0.73232267  0.29405490  0.80216050     0.04700
C1017       C  0.71508730  0.26371332  0.76864284    -0.07500
C1018       C  0.68172615  0.24611624  0.77110333    -0.08300
C1019       C  0.66473382  0.25779167  0.80705500    -0.02800
C1020       C  0.68236124  0.28678716  0.84430655     0.04000
N1021       N  0.66585459  0.29975058  0.88089331     0.66500
H1022       H  0.72814657  0.32819568  0.86632967     0.15400
H1023       H  0.66880664  0.22343713  0.74350474     0.15100
N1024       N  0.73077858  0.25090365  0.72973067     0.74200
O1025       O  0.66434473  0.29537173  0.93144102    -0.39300
O1026       O  0.64870708  0.31128553  0.86039924    -0.39200
O1027       O  0.73689953  0.22914938  0.74130973    -0.39900
O1028       O  0.73041070  0.25514908  0.67911339    -0.40000
C1029       C  0.73946423  0.41365217  0.78687050    -0.12300
C1030       C  0.75054127  0.40544028  0.73612417     0.04700
C1031       C  0.74114858  0.41323779  0.68579233    -0.07500
C1032       C  0.71938867  0.42650822  0.68642059    -0.08300
C1033       C  0.70619102  0.43216973  0.73603295    -0.02800
C1034       C  0.71755783  0.42690716  0.78721189     0.04000
N1035       N  0.70452965  0.43178099  0.83867049     0.66500
H1036       H  0.74646158  0.40832305  0.82619028     0.15400
H1037       H  0.71104806  0.43048312  0.64666285     0.15100
N1038       N  0.75203262  0.40651595  0.63279795     0.74200
O1039       O  0.68176604  0.40912572  0.85381675    -0.39300
O1040       O  0.71458388  0.45900309  0.86743865    -0.39200
O1041       O  0.73369621  0.38231015  0.59705513    -0.39900
O1042       O  0.77596859  0.42777332  0.61694465    -0.40000
C1043       C  0.99903881  0.45199138  0.71484908    -0.12300
C1044       C  0.51551842  0.44217614  0.76384389     0.04700
C1045       C  0.99624634  0.42133210  0.78721808    -0.07500
C1046       C  0.96298911  0.41374841  0.78767782    -0.08300
C1047       C  0.94752022  0.42573857  0.75322103    -0.02800
C1048       C  0.96598486  0.44499957  0.71635160     0.04000
N1049       N  0.95319475  0.46161082  0.68668818     0.66500
H1050       H  0.51225758  0.45893879  0.68653011     0.15400
H1051       H  0.94951838  0.39949964  0.81709508     0.15100
N1052       N  0.01083536  0.40923118  0.82486453     0.74200
O1053       O  0.96110729  0.48980970  0.70778215    -0.39300
O1054       O  0.94335592  0.45190577  0.63425777    -0.39200
O1055       O  0.51814980  0.43813211  0.89932464    -0.39900
O1056       O  0.01224602  0.38391818  0.80721570    -0.40000
C1057       C  0.67415892  0.51001005  0.49077007    -0.12300
C1058       C  0.64960768  0.01396885  0.45005417     0.04700
C1059       C  0.62061276  0.01002200  0.47411802    -0.07500
C1060       C  0.61204123  0.99488216  0.52143323    -0.08300
C1061       C  0.63467032  0.48676493  0.55724428    -0.02800
C1062       C  0.66543439  0.49425072  0.53726514     0.04000
N1063       N  0.68887890  0.48697381  0.56470271     0.66500
H1064       H  0.69785579  0.51522581  0.47718614     0.15400
H1065       H  0.58976189  0.99236248  0.53829934     0.15100
N1066       N  0.59939949  0.02134881  0.45146320     0.74200
O1067       O  0.69293181  0.46381676  0.54165726    -0.39300
O1068       O  0.71071315  0.50771168  0.60208584    -0.39200
O1069       O  0.57529709  0.00282457  0.41555256    -0.39900
O1070       O  0.59948928  0.04605759  0.47786681    -0.40000
C1071       C  0.68808448  0.00555358  0.04504307    -0.12300
C1072       C  0.68636944  0.03426410  0.04855645     0.04700
C1073       C  0.67365116  0.04001391  0.99914843    -0.07500
C1074       C  0.66142700  0.01704647  0.94960735    -0.08300
C1075       C  0.65648953  0.48026373  0.96438783    -0.02800
C1076       C  0.64652244  0.47325452  0.01734942     0.04000
N1077       N  0.62065118  0.44375361  0.02110805     0.66500
H1078       H  0.69679111  0.00016066  0.08282300     0.15400
H1079       H  0.65067684  0.02196724  0.91348649     0.15100
N1080       N  0.66957923  0.06780930  0.00016311     0.74200
O1081       O  0.62750108  0.42301624  0.03581702    -0.39300
O1082       O  0.59245951  0.44165837  0.02505409    -0.39200
O1083       O  0.68904462  0.08917154  0.97717024    -0.39900
O1084       O  0.64236073  0.06712999  0.00877691    -0.40000
C1085       C  0.88583910  0.38328380  0.04013434    -0.12300
C1086       C  0.86057640  0.35534435  0.04850138     0.04700
C1087       C  0.83081757  0.34252026  0.01213204    -0.07500
C1088       C  0.82702017  0.35786134  0.96904136    -0.08300
C1089       C  0.85254091  0.38565029  0.96020008    -0.02800
C1090       C  0.88236864  0.39825241  0.99654850     0.04000
N1091       N  0.90977050  0.42606592  0.98981629     0.66500
H1092       H  0.90880066  0.39367730  0.06757058     0.15400
H1093       H  0.80409208  0.34744922  0.94151194     0.15100
N1094       N  0.80390519  0.31431830  0.01872689     0.74200
O1095       O  0.91534115  0.45166000  0.02127795    -0.39300
O1096       O  0.93239581  0.42370824  0.96469002    -0.39200
O1097       O  0.78248285  0.31590154  0.04840955    -0.39900
O1098       O  0.79735961  0.28939363  0.98411470    -0.40000
C1099       C  0.83512463  0.32989421  0.45429984    -0.12300
C1100       C  0.86880528  0.34125524  0.45488529     0.04700
C1101       C  0.88983896  0.36250420  0.50265209    -0.07500
C1102       C  0.87701320  0.37254984  0.54827658    -0.08300
C1103       C  0.84333381  0.36187616  0.54753584    -0.02800
C1104       C  0.82220094  0.34033517  0.49986082     0.04000
N1105       N  0.78789367  0.33063064  0.49514913     0.66500
H1106       H  0.81893214  0.31496454  0.41639912     0.15400
H1107       H  0.89367637  0.38835340  0.58501884     0.15100
N1108       N  0.92442903  0.37476768  0.50482150     0.74200
O1109       O  0.77641039  0.34680877  0.47398478    -0.39300
O1110       O  0.76903582  0.30303208  0.49933201    -0.39200
O1111       O  0.94081474  0.40273786  0.49951693    -0.39900
O1112       O  0.93864908  0.36096423  0.52671991    -0.40000
C1113       C  0.78800501  0.22032000  0.31927664    -0.12300
C1114       C  0.78285698  0.22756142  0.26617339     0.04700
C1115       C  0.76086869  0.20309080  0.22264665    -0.07500
C1116       C  0.74660509  0.17230358  0.23138157    -0.08300
C1117       C  0.75316353  0.16461303  0.28311298    -0.02800
C1118       C  0.77342144  0.18922324  0.32808734     0.04000
N1119       N  0.78140836  0.18295791  0.38156878     0.66500
H1120       H  0.80510911  0.23851591  0.35298107     0.15400
H1121       H  0.73018156  0.15418029  0.19685056     0.15100
N1122       N  0.75305756  0.20890177  0.16850783     0.74200
O1123       O  0.80661427  0.17896296  0.38957194    -0.39300
O1124       O  0.76795040  0.18843085  0.42373098    -0.39200
O1125       O  0.76498087  0.20105916  0.12606329    -0.39900
O1126       O  0.72843284  0.21381249  0.16048214    -0.40000
C1127       C  0.54144197  0.43634482  0.18164648    -0.12300
C1128       C  0.56622488  0.44510877  0.22710916     0.04700
C1129       C  0.55929387  0.42942268  0.27322212    -0.07500
C1130       C  0.52728696  0.40857094  0.27640378    -0.08300
C1131       C  0.99967562  0.40387880  0.22819315    -0.02800
C1132       C  0.50937252  0.41600984  0.18532659     0.04000
N1133       N  0.98042616  0.41761710  0.14283736     0.66500
H1134       H  0.54615904  0.44732333  0.14469456     0.15400
H1135       H  0.02192613  0.39388975  0.29974163     0.15100
N1136       N  0.58375707  0.92463696  0.28753404     0.74200
O1137       O  0.47285508  0.43014783  0.14147973    -0.39300
O1138       O  0.97360004  0.40045025  0.09430225    -0.39200
O1139       O  0.59016050  0.93711042  0.33955845    -0.39900
O1140       O  0.59413174  0.90502591  0.26957648    -0.40000
C1141       C  0.00409386  0.17198447  0.49550565    -0.12300
C1142       C  0.00556388  0.14914435  0.45295320     0.04700
C1143       C  0.53182791  0.14383032  0.46321924    -0.07500
C1144       C  0.55288718  0.15787640  0.51419000    -0.08300
C1145       C  0.54861919  0.17914228  0.55597600    -0.02800
C1146       C  0.02573145  0.18465540  0.54566467     0.04000
N1147       N  0.02205879  0.20698848  0.58734816     0.66500
H1148       H  0.98582668  0.18030715  0.49028296     0.15400
H1149       H  0.57168145  0.15056316  0.52272245     0.15100
N1150       N  0.53727791  0.12180298  0.42373383     0.74200
O1151       O  0.03434516  0.23518965  0.58184588    -0.39300
O1152       O  0.49697290  0.19975401  0.61706348    -0.39200
O1153       O  0.56103839  0.13161916  0.39553388    -0.39900
O1154       O  0.52434522  0.09342234  0.42820364    -0.40000
C1155       C  0.95328094  0.11392997  0.98958379    -0.12300
C1156       C  0.96009418  0.13508699  0.04048653     0.04700
C1157       C  0.98200703  0.16674337  0.04227268    -0.07500
C1158       C  0.50418700  0.17581977  0.99816147    -0.08300
C1159       C  0.49440523  0.15573705  0.94481053    -0.02800
C1160       C  0.46764103  0.12598970  0.94047427     0.04000
N1161       N  0.45257294  0.10640671  0.88674815     0.66500
H1162       H  0.93704279  0.08945641  0.98761706     0.15400
H1163       H  0.52431131  0.19889529  0.00298408     0.15100
N1164       N  0.99180428  0.18904446  0.09413667     0.74200
O1165       O  0.46085673  0.08530250  0.86816905    -0.39300
O1166       O  0.42509878  0.10379932  0.86848361    -0.39200
O1167       O  0.01939477  0.19725368  0.12117179    -0.39900
O1168       O  0.97765936  0.20632309  0.10370124    -0.40000
C1169       C  0.94134546  0.24412355  0.25624838    -0.12300
C1170       C  0.93031224  0.21609448  0.21703031     0.04700
C1171       C  0.90691553  0.20993833  0.17060971    -0.07500
C1172       C  0.89345753  0.23095615  0.16662973    -0.08300
C1173       C  0.90257306  0.25777506  0.20888563    -0.02800
C1174       C  0.92779510  0.26485535  0.25276465     0.04000
N1175       N  0.93942794  0.29256190  0.29531142     0.66500
H1176       H  0.95941904  0.24915316  0.29194201     0.15400
H1177       H  0.87399306  0.22499296  0.13290971     0.15100
N1178       N  0.89397165  0.18101522  0.13093931     0.74200
O1179       O  0.92953489  0.29084756  0.34346530    -0.39300
O1180       O  0.96521920  0.31587658  0.29018585    -0.39200
O1181       O  0.86845856  0.15842417  0.13941611    -0.39900
O1182       O  0.90333785  0.18037442  0.08234342    -0.40000
C1183       C  0.93389184  0.50020187  0.30597034    -0.12300
C1184       C  0.92461420  0.00471597  0.25691119     0.04700
C1185       C  0.89685028  0.47490605  0.21895723    -0.07500
C1186       C  0.89140982  0.44566763  0.23120750    -0.08300
C1187       C  0.90784194  0.44292255  0.27940092    -0.02800
C1188       C  0.92831120  0.47084726  0.31842077     0.04000
N1189       N  0.94458526  0.47017867  0.37015706     0.66500
H1190       H  0.95083664  0.52107057  0.33524198     0.15400
H1191       H  0.87503397  0.42492139  0.20105070     0.15100
N1192       N  0.88196831  0.97959146  0.17339566     0.74200
O1193       O  0.97370669  0.47420640  0.37184430    -0.39300
O1194       O  0.93316190  0.47361423  0.41614625    -0.39200
O1195       O  0.88766753  0.97280113  0.12352786    -0.39900
O1196       O  0.85109914  0.47394960  0.17146366    -0.40000
C1197       C  0.80820201  0.08122832  0.33094809    -0.12300
C1198       C  0.78596860  0.07162217  0.28148469     0.04700
C1199       C  0.79891152  0.07448715  0.22877512    -0.07500
C1200       C  0.83283838  0.08835362  0.22729400    -0.08300
C1201       C  0.85497567  0.10029637  0.27722176    -0.02800
C1202       C  0.84201122  0.09576079  0.32968908     0.04000
N1203       N  0.86241761  0.10785453  0.38301155     0.66500
H1204       H  0.79937252  0.07954567  0.37202617     0.15400
H1205       H  0.84180830  0.09111264  0.18650465     0.15100
N1206       N  0.77840577  0.06612040  0.17637404     0.74200
O1207       O  0.86822645  0.13472936  0.40932868    -0.39300
O1208       O  0.86719611  0.08927471  0.40973117    -0.39200
O1209       O  0.77816757  0.08758971  0.15242530    -0.39900
O1210       O  0.76891278  0.03909357  0.14710969    -0.40000
C1211       C  0.54719564  0.08287220  0.27773560    -0.12300
C1212       C  0.54117354  0.09375209  0.22945081     0.04700
C1213       C  0.56070737  0.09522283  0.18545683    -0.07500
C1214       C  0.58362591  0.08335692  0.18810154    -0.08300
C1215       C  0.58749721  0.06940957  0.23377778    -0.02800
C1216       C  0.57024482  0.07098441  0.28059071     0.04000
N1217       N  0.57384556  0.05862378  0.32950084     0.66500
H1218       H  0.02693433  0.07740193  0.30822304     0.15400
H1219       H  0.59747692  0.08389331  0.15256342     0.15100
N1220       N  0.55701738  0.10792369  0.13697955     0.74200
O1221       O  0.59184946  0.07709588  0.37350797    -0.39300
O1222       O  0.55309217  0.03169022  0.33366630    -0.39200
O1223       O  0.57643811  0.13574878  0.13519708    -0.39900
O1224       O  0.54073739  0.08965351  0.09151384    -0.40000
O1225       O  0.96181166  0.60086516  0.09911706    -0.80900
O1226       O  0.97928298  0.61584448  0.35226747    -0.65600
O1227       O  0.93608072  0.59413996  0.20155659    -1.12200
C1228       C  0.93889143  0.69155490  0.22381654     1.06000
O1229       O  0.96589450  0.65418890  0.38444674    -0.78800
O1230       O  0.90867214  0.62938364  0.31176513    -0.66400
Ni1231     Ni  0.94363168  0.56830845  0.14335259     1.34900
C1232       C  0.88953259  0.61817731  0.26532792     0.84700
O1233       O  0.94490861  0.55939511  0.27756754    -0.79300
O1234       O  0.92597340  0.53502761  0.18586361    -0.89600
C1235       C  0.98121360  0.63809978  0.39084116     0.84300
O1236       O  0.48887337  0.57868099  0.17788605    -0.67800
O1237       O  0.93153234  0.68400986  0.27152848    -0.87100
C1238       C  0.50762601  0.59485063  0.22310083     0.85100
C1239       C  0.93046391  0.53440214  0.23884926     1.06700
H1240       H  0.98871046  0.65888270  0.27084300     0.38500
O1241       O  0.96562101  0.64604355  0.27016595    -1.09700
O1242       O  0.89997124  0.62420276  0.21712190    -0.66400
Ni1243     Ni  0.94439657  0.63560181  0.19468797     1.26300
O1244       O  0.99860940  0.60912817  0.25366397    -0.66600
O1245       O  0.95098821  0.67742656  0.19059419    -0.78900
C1246       C  0.95004961  0.61886951  0.08511499     0.84500
O1247       O  0.93022489  0.62486440  0.11471643    -0.66100
Ni1248     Ni  0.94859077  0.66633499  0.32389712     1.27400
Ni1249     Ni  0.95689306  0.60346992  0.27611615     1.26100
H1250       H  0.91318379  0.58240175  0.20391344     0.39100
O1251       O  0.84745664  0.81247171  0.09153835    -0.80900
O1252       O  0.87264893  0.81416609  0.35854090    -0.65600
O1253       O  0.85117250  0.82295315  0.20910430    -1.12200
C1254       C  0.96661626  0.88575075  0.23478773     1.06000
O1255       O  0.89938075  0.86609273  0.38053223    -0.78800
O1256       O  0.92795390  0.90888636  0.31440462    -0.66400
Ni1257     Ni  0.83279540  0.78704190  0.14944217     1.34900
C1258       C  0.90904565  0.91155377  0.27752160     0.84700
O1259       O  0.81767671  0.78450675  0.28488008    -0.79300
O1260       O  0.81225544  0.75747440  0.19814882    -0.89600
C1261       C  0.88157942  0.83996723  0.39341985     0.84300
O1262       O  0.87130652  0.78031443  0.15829175    -0.67800
O1263       O  0.96571368  0.88111093  0.28575585    -0.87100
C1264       C  0.88143738  0.77456325  0.20398681     0.85100
C1265       C  0.80459271  0.75903967  0.24849476     1.06700
H1266       H  0.91621979  0.83051564  0.26370085     0.38500
O1267       O  0.90446270  0.84252475  0.27281418    -1.09700
O1268       O  0.88961838  0.88813750  0.23976581    -0.66400
Ni1269     Ni  0.89549872  0.85224364  0.20395143     1.26300
O1270       O  0.87307719  0.78167198  0.25246685    -0.66600
O1271       O  0.94112367  0.87907087  0.20036895    -0.78900
C1272       C  0.86344458  0.84166765  0.09182668     0.84500
O1273       O  0.88366413  0.86062697  0.13384999    -0.66100
Ni1274     Ni  0.93239067  0.87347219  0.33266030     1.27400
Ni1275     Ni  0.86123346  0.81508706  0.28128424     1.26100
H1276       H  0.83718308  0.83330050  0.21219700     0.39100
O1277       O  0.69360193  0.54930704  0.40368780    -0.80900
O1278       O  0.70873874  0.56377541  0.15392222    -0.65600
O1279       O  0.68293567  0.57200695  0.30469818    -1.12200
C1280       C  0.59512054  0.97227515  0.21556929     1.06000
O1281       O  0.65957563  0.55339324  0.12628255    -0.78800
O1282       O  0.61176024  0.54469345  0.18702204    -0.66400
Ni1283     Ni  0.71362845  0.58775641  0.37088805     1.34900
C1284       C  0.60649619  0.55260527  0.23685633     0.84700
O1285       O  0.72975918  0.61291839  0.24823965    -0.79300
O1286       O  0.73323135  0.62717508  0.34384562    -0.89600
C1287       C  0.68522876  0.55192192  0.11412297     0.84300
O1288       O  0.74800770  0.57881053  0.34144369    -0.67800
O1289       O  0.59973935  0.98329176  0.17003025    -0.87100
C1290       C  0.75212434  0.56844726  0.29167097     0.85100
C1291       C  0.73869271  0.63371915  0.29411564     1.06700
H1292       H  0.67130055  0.51352760  0.21246503     0.38500
O1293       O  0.66241636  0.52848137  0.21826117    -1.09700
O1294       O  0.61764692  0.54615610  0.28039058    -0.66400
Ni1295     Ni  0.64950259  0.53006503  0.29280553     1.26300
O1296       O  0.72910754  0.55620751  0.25091132    -0.66600
O1297       O  0.61433858  0.98502080  0.26213989    -0.78900
C1298       C  0.66320756  0.53456758  0.41010697     0.84500
O1299       O  0.64142482  0.53187745  0.37154277    -0.66100
Ni1300     Ni  0.63062746  0.51895878  0.15514145     1.27400
Ni1301     Ni  0.69718185  0.57003477  0.23106851     1.26100
H1302       H  0.67267331  0.58584600  0.30648247     0.39100
O1303       O  0.87191902  0.91450206  0.88246739    -0.80900
O1304       O  0.84952412  0.89535879  0.62798617    -0.65600
O1305       O  0.84165131  0.91622013  0.78226664    -1.12200
C1306       C  0.75934214  0.81715983  0.77031887     1.06000
O1307       O  0.80418433  0.85063261  0.60090621    -0.78800
O1308       O  0.77410420  0.87545913  0.67795354    -0.66400
Ni1309     Ni  0.87705287  0.94478088  0.83523057     1.34900
C1310       C  0.76912794  0.88741374  0.72561230     0.84700
O1311       O  0.86822999  0.95020922  0.69919826    -0.79300
O1312       O  0.88281389  0.97617690  0.79037812    -0.89600
C1313       C  0.83118618  0.87123615  0.59164280     0.84300
O1314       O  0.91136666  0.93821329  0.80214216    -0.67800
O1315       O  0.75449948  0.82266424  0.72164599    -0.87100
C1316       C  0.91266075  0.92238078  0.75576544     0.85100
C1317       C  0.87971373  0.97547704  0.73674145     1.06700
H1318       H  0.83526997  0.85270187  0.71370777     0.38500
O1319       O  0.82171179  0.86348914  0.71566314    -1.09700
O1320       O  0.77873432  0.88283454  0.77335491    -0.66400
Ni1321     Ni  0.81606355  0.87469392  0.79285712     1.26300
O1322       O  0.88784788  0.90593131  0.71882299    -0.66600
O1323       O  0.78686333  0.83254262  0.80105252    -0.78900
C1324       C  0.84595317  0.89701351  0.90114985     0.84500
O1325       O  0.81798709  0.88800873  0.87287961    -0.66100
Ni1326     Ni  0.78208951  0.83966538  0.66557496     1.27400
Ni1327     Ni  0.84608813  0.90663826  0.70559171     1.26100
H1328       H  0.82793071  0.92678329  0.78275514     0.39100
O1329       O  0.63154050  0.94653202  0.60693930    -0.80900
O1330       O  0.64666978  0.94760738  0.86168224    -0.65600
O1331       O  0.60411739  0.93404789  0.70987215    -1.12200
C1332       C  0.61330986  0.53465054  0.77328307     1.06000
O1333       O  0.60967075  0.96112434  0.88740172    -0.78800
O1334       O  0.56538478  0.96196274  0.81508645    -0.66400
Ni1335     Ni  0.61212756  0.91139543  0.64660201     1.34900
C1336       C  0.55151656  0.95607725  0.76488591     0.84700
O1337       O  0.61442989  0.89440317  0.77534811    -0.79300
O1338       O  0.59334364  0.87541604  0.68286065    -0.89600
C1339       C  0.63717054  0.96211816  0.89962014     0.84300
O1340       O  0.65426442  0.91742442  0.67492751    -0.67800
O1341       O  0.60559142  0.52463507  0.81932024    -0.87100
C1342       C  0.67388056  0.93352610  0.71940708     0.85100
C1343       C  0.59825559  0.87154254  0.73374620     1.06700
H1344       H  0.65267603  0.99489313  0.79758657     0.38500
O1345       O  0.62973820  0.98043660  0.79055231    -1.09700
O1346       O  0.56764048  0.96491027  0.72334311    -0.66400
Ni1347     Ni  0.61364473  0.97697968  0.71370011     1.26300
O1348       O  0.66643971  0.94853243  0.75997657    -0.66600
O1349       O  0.62350693  0.52140139  0.73409681    -0.78900
C1350       C  0.62120126  0.96634964  0.59721696     0.84500
O1351       O  0.60386257  0.97348894  0.63191284    -0.66100
Ni1352     Ni  0.60791329  0.99189832  0.84851197     1.27400
Ni1353     Ni  0.62422636  0.93828630  0.78442097     1.26100
H1354       H  0.58107255  0.92241178  0.71102374     0.39100
O1355       O  0.56206948  0.65543933  0.63047164    -0.80900
O1356       O  0.51277240  0.64376435  0.85749784    -0.65600
O1357       O  0.52392411  0.65942865  0.70735074    -1.12200
C1358       C  0.62775817  0.73839047  0.80053568     1.06000
O1359       O  0.52836531  0.69427552  0.89135088    -0.78800
O1360       O  0.56312357  0.74448193  0.83457775    -0.66400
Ni1361     Ni  0.52091113  0.62769377  0.64626664     1.34900
C1362       C  0.55633882  0.74656312  0.78367846     0.84700
O1363       O  0.97377002  0.61376544  0.74733410    -0.79300
O1364       O  0.97309433  0.60137605  0.65257117    -0.89600
C1365       C  0.51264602  0.66535859  0.89527400     0.84300
O1366       O  0.54392706  0.61080961  0.68453126    -0.67800
O1367       O  0.61594941  0.73417092  0.84780445    -0.87100
C1368       C  0.55047724  0.61052340  0.73596539     0.85100
C1369       C  0.96092214  0.59572477  0.69871962     1.06700
H1370       H  0.57642055  0.67460309  0.80641150     0.38500
O1371       O  0.56124036  0.68318971  0.80059368    -1.09700
O1372       O  0.54930809  0.72407080  0.74198609    -0.66400
Ni1373     Ni  0.56675789  0.69422710  0.72787962     1.26300
O1374       O  0.53957782  0.62215217  0.77603595    -0.66600
O1375       O  0.61051524  0.72672028  0.75162930    -0.78900
C1376       C  0.56253182  0.67878776  0.61328773     0.84500
O1377       O  0.56875094  0.70262001  0.65101366    -0.66100
Ni1378     Ni  0.57172947  0.71402485  0.86679032     1.27400
Ni1379     Ni  0.51832304  0.64916119  0.78062820     1.26100
H1380       H  0.50839903  0.66692425  0.69740539     0.39100
C1381       C  0.57891361  0.83382298  0.80095404    -0.12300
C1382       C  0.58428369  0.83889946  0.74527172     0.04700
C1383       C  0.57553562  0.81248910  0.70160556    -0.07500
C1384       C  0.56404230  0.78249743  0.71475737    -0.08300
C1385       C  0.56045980  0.77749450  0.77093785    -0.02800
C1386       C  0.56688867  0.80367093  0.81395852     0.04000
N1387       N  0.56123578  0.80022702  0.87113178     0.66500
H1388       H  0.58412517  0.85344293  0.83496735     0.15400
H1389       H  0.55971736  0.76318700  0.68081673     0.15100
N1390       N  0.57967241  0.81570986  0.64384693     0.74200
O1391       O  0.58480550  0.80585563  0.90754826    -0.39300
O1392       O  0.53508889  0.79906182  0.88767668    -0.39200
O1393       O  0.60753109  0.82427908  0.62777514    -0.39900
O1394       O  0.55595454  0.81234243  0.61002211    -0.40000
C1395       C  0.60047803  0.57826119  0.81076215    -0.12300
C1396       C  0.60614195  0.56066241  0.76381099     0.04700
C1397       C  0.59785378  0.56376569  0.70854624    -0.07500
C1398       C  0.58114376  0.58134333  0.70123756    -0.08300
C1399       C  0.57186819  0.59578921  0.74781725    -0.02800
C1400       C  0.58331672  0.59560391  0.80325430     0.04000
N1401       N  0.57665789  0.61171102  0.85226290     0.66500
H1402       H  0.60744513  0.57688825  0.85370787     0.15400
H1403       H  0.57367651  0.58189899  0.65803545     0.15100
N1404       N  0.60209832  0.54605352  0.65897718     0.74200
O1405       O  0.55191681  0.59760508  0.87609078    -0.39300
O1406       O  0.59477269  0.64038549  0.87040088    -0.39200
O1407       O  0.57941273  0.51945393  0.63807564    -0.39900
O1408       O  0.62359982  0.55982142  0.62867353    -0.40000
C1409       C  0.91050633  0.50796657  0.67146053    -0.12300
C1410       C  0.89189990  0.00598591  0.71793588     0.04700
C1411       C  0.89165794  0.53122743  0.74922798    -0.07500
C1412       C  0.91088914  0.56093522  0.73728724    -0.08300
C1413       C  0.93257809  0.56477097  0.69657827    -0.02800
C1414       C  0.93037374  0.53764392  0.66048505     0.04000
N1415       N  0.95027633  0.53980096  0.61567132     0.66500
H1416       H  0.91059612  0.48762059  0.64551516     0.15400
H1417       H  0.90939879  0.58120916  0.76014081     0.15100
N1418       N  0.86920550  0.02799616  0.79408296     0.74200
O1419       O  0.97759322  0.53977302  0.62472592    -0.39300
O1420       O  0.94146487  0.54373488  0.56803157    -0.39200
O1421       O  0.88056772  0.03343150  0.84561761    -0.39900
O1422       O  0.83879467  0.01384912  0.78010365    -0.40000
C1423       C  0.71436520  0.80486668  0.83127055    -0.12300
C1424       C  0.73016097  0.79403096  0.79069942     0.04700
C1425       C  0.71262112  0.76361047  0.75781253    -0.07500
C1426       C  0.67990021  0.74549999  0.76384997    -0.08300
C1427       C  0.66353370  0.75707237  0.80155433    -0.02800
C1428       C  0.68127296  0.78674968  0.83664304     0.04000
N1429       N  0.66496987  0.80034906  0.87244454     0.66500
H1430       H  0.72680858  0.82860010  0.85506331     0.15400
H1431       H  0.66674871  0.72265052  0.73689042     0.15100
N1432       N  0.72696248  0.75153498  0.71493199     0.74200
O1433       O  0.66268120  0.79601356  0.92294819    -0.39300
O1434       O  0.64887281  0.81269205  0.85122938    -0.39200
O1435       O  0.73496814  0.73043143  0.72347388    -0.39900
O1436       O  0.72351871  0.75562075  0.66475113    -0.40000
C1437       C  0.74062246  0.91581222  0.77632931    -0.12300
C1438       C  0.75018394  0.90588121  0.72521481     0.04700
C1439       C  0.73956430  0.91217790  0.67413414    -0.07500
C1440       C  0.71739599  0.92492000  0.67448049    -0.08300
C1441       C  0.70528668  0.93174830  0.72462627    -0.02800
C1442       C  0.71858170  0.92886387  0.77647726     0.04000
N1443       N  0.70750850  0.93605996  0.82889184     0.66500
H1444       H  0.74897048  0.91206553  0.81627002     0.15400
H1445       H  0.70784714  0.92746218  0.63432568     0.15100
N1446       N  0.74944294  0.90427527  0.62077014     0.74200
O1447       O  0.68747753  0.91437124  0.85054194    -0.39300
O1448       O  0.71731491  0.96415036  0.85309370    -0.39200
O1449       O  0.73087088  0.87920740  0.58723876    -0.39900
O1450       O  0.77253638  0.92508517  0.60228201    -0.40000
C1451       C  0.99689335  0.94971742  0.70731392    -0.12300
C1452       C  0.51509386  0.94000644  0.75644111     0.04700
C1453       C  0.99290285  0.91871383  0.77961148    -0.07500
C1454       C  0.95984117  0.91179506  0.77966637    -0.08300
C1455       C  0.94506352  0.92419107  0.74491043    -0.02800
C1456       C  0.96373791  0.94264918  0.70724596     0.04000
N1457       N  0.95077544  0.95785599  0.67405360     0.66500
H1458       H  0.51156470  0.96305901  0.68806957     0.15400
H1459       H  0.94591858  0.89755474  0.80872224     0.15100
N1460       N  0.00644487  0.90512866  0.81582113     0.74200
O1461       O  0.95890516  0.98650761  0.69094616    -0.39300
O1462       O  0.94020662  0.94594048  0.62235473    -0.39200
O1463       O  0.52005922  0.92393299  0.88412228    -0.39900
O1464       O  0.00493914  0.87860060  0.79731273    -0.40000
C1465       C  0.66831493  0.00096921  0.47386308    -0.12300
C1466       C  0.65297911  0.51867947  0.46143099     0.04700
C1467       C  0.62217941  0.51119464  0.48143894    -0.07500
C1468       C  0.61361177  0.49573606  0.52839569    -0.08300
C1469       C  0.63090063  0.98206543  0.54560036    -0.02800
C1470       C  0.65898351  0.98459892  0.51938500     0.04000
N1471       N  0.67825171  0.97012615  0.53733936     0.66500
H1472       H  0.69006820  0.00261722  0.45572500     0.15400
H1473       H  0.58992025  0.49042968  0.54199458     0.15100
N1474       N  0.59951637  0.52020267  0.45634083     0.74200
O1475       O  0.67220596  0.94301603  0.51194486    -0.39300
O1476       O  0.70545755  0.98680601  0.56699933    -0.39200
O1477       O  0.57489823  0.49976568  0.42355512    -0.39900
O1478       O  0.59922143  0.54544410  0.47872788    -0.40000
C1479       C  0.66005646  0.49628277  0.06692202    -0.12300
C1480       C  0.68217611  0.52721149  0.06517974     0.04700
C1481       C  0.69374428  0.53377200  0.01287752    -0.07500
C1482       C  0.68131446  0.51020082  0.96343586    -0.08300
C1483       C  0.65969887  0.98715577  0.94771356    -0.02800
C1484       C  0.67453047  0.98187725  0.99546466     0.04000
N1485       N  0.67297878  0.95182598  0.99690169     0.66500
H1486       H  0.65096306  0.49045274  0.10648514     0.15400
H1487       H  0.68870186  0.51634433  0.92298651     0.15100
N1488       N  0.71559746  0.56476712  0.00778542     0.74200
O1489       O  0.69755400  0.94725792  0.98756170    -0.39300
O1490       O  0.65107039  0.93319719  0.02113829    -0.39200
O1491       O  0.74500217  0.57121787  0.00313626    -0.39900
O1492       O  0.70416286  0.58249162  0.99301440    -0.40000
C1493       C  0.88283862  0.88313917  0.03378503    -0.12300
C1494       C  0.85825277  0.85466582  0.04173811     0.04700
C1495       C  0.82851238  0.84119541  0.00496277    -0.07500
C1496       C  0.82441672  0.85601370  0.96110896    -0.08300
C1497       C  0.84940752  0.88417968  0.95252846    -0.02800
C1498       C  0.87881598  0.89788746  0.99020561     0.04000
N1499       N  0.90498439  0.92704807  0.98556110     0.66500
H1500       H  0.90561942  0.89429848  0.06183221     0.15400
H1501       H  0.80170960  0.84496107  0.93287746     0.15100
N1502       N  0.80177820  0.81303964  0.01225555     0.74200
O1503       O  0.90738540  0.95183249  0.01593560    -0.39300
O1504       O  0.92946022  0.92713794  0.96350688    -0.39200
O1505       O  0.77882327  0.81473109  0.03723187    -0.39900
O1506       O  0.79705351  0.78751265  0.98147983    -0.40000
C1507       C  0.83489538  0.83557084  0.44255640    -0.12300
C1508       C  0.86774529  0.84173047  0.44638429     0.04700
C1509       C  0.88861381  0.85930268  0.49686181    -0.07500
C1510       C  0.87637720  0.87014724  0.54267788    -0.08300
C1511       C  0.84363307  0.86438556  0.53882624    -0.02800
C1512       C  0.82282157  0.84727329  0.48801053     0.04000
N1513       N  0.79045762  0.84429244  0.48006163     0.66500
H1514       H  0.81929391  0.82405612  0.40250430     0.15400
H1515       H  0.89251556  0.88264746  0.58188634     0.15100
N1516       N  0.92255723  0.86712159  0.50157617     0.74200
O1517       O  0.78601962  0.86615613  0.46441391    -0.39300
O1518       O  0.76657088  0.81782224  0.47584853    -0.39200
O1519       O  0.94268979  0.89409653  0.49625204    -0.39900
O1520       O  0.93259515  0.85042949  0.52449103    -0.40000
C1521       C  0.79054670  0.72285983  0.31823397    -0.12300
C1522       C  0.78312660  0.72901149  0.26524203     0.04700
C1523       C  0.75943970  0.70410677  0.22469644    -0.07500
C1524       C  0.74557809  0.67382081  0.23589568    -0.08300
C1525       C  0.75428895  0.66708349  0.28729508    -0.02800
C1526       C  0.77635044  0.69228096  0.32966814     0.04000
N1527       N  0.78628813  0.68718887  0.38298888     0.66500
H1528       H  0.80895451  0.74149689  0.34971513     0.15400
H1529       H  0.72771146  0.65530230  0.20350764     0.15100
N1530       N  0.74915030  0.70900050  0.17139183     0.74200
O1531       O  0.81241758  0.68459332  0.38931394    -0.39300
O1532       O  0.77418980  0.69354064  0.42643271    -0.39200
O1533       O  0.75906476  0.70030760  0.12697862    -0.39900
O1534       O  0.72406564  0.71348833  0.16676099    -0.40000
C1535       C  0.53716142  0.94357992  0.17892480    -0.12300
C1536       C  0.56353717  0.94558785  0.21466805     0.04700
C1537       C  0.55774060  0.92551756  0.25384315    -0.07500
C1538       C  0.52582240  0.90643462  0.26089573    -0.08300
C1539       C  0.99959220  0.90164695  0.21866174    -0.02800
C1540       C  0.50524091  0.92494041  0.18660509     0.04000
N1541       N  0.98066306  0.91368909  0.13089725     0.66500
H1542       H  0.54106138  0.95860566  0.14791059     0.15400
H1543       H  0.02190020  0.89239695  0.29121305     0.15100
N1544       N  0.58402965  0.43497098  0.31790598     0.74200
O1545       O  0.47129338  0.94790380  0.16849512    -0.39300
O1546       O  0.97480883  0.89491821  0.08446369    -0.39200
O1547       O  0.58316590  0.44764281  0.36740111    -0.39900
O1548       O  0.60161016  0.42086757  0.31104724    -0.40000
C1549       C  0.00325636  0.67264469  0.48598938    -0.12300
C1550       C  0.00325076  0.64815546  0.44542121     0.04700
C1551       C  0.52579334  0.63629716  0.46419676    -0.07500
C1552       C  0.54781482  0.64991200  0.51418190    -0.08300
C1553       C  0.54635755  0.67328540  0.55515208    -0.02800
C1554       C  0.02486014  0.68542387  0.53618057     0.04000
N1555       N  0.02218362  0.70898647  0.57637299     0.66500
H1556       H  0.98606818  0.68208903  0.47936826     0.15400
H1557       H  0.56526672  0.64094116  0.52241765     0.15100
N1558       N  0.52852842  0.61237778  0.42512301     0.74200
O1559       O  0.03443853  0.73671116  0.56807826    -0.39300
O1560       O  0.49823300  0.69999147  0.61593799    -0.39200
O1561       O  0.55371501  0.61926659  0.40037011    -0.39900
O1562       O  0.51072545  0.58412736  0.42692366    -0.40000
C1563       C  0.95339215  0.61246639  0.98207822    -0.12300
C1564       C  0.96117624  0.63287476  0.03418469     0.04700
C1565       C  0.98390673  0.66446054  0.03735246    -0.07500
C1566       C  0.50426758  0.67687002  0.99793033    -0.08300
C1567       C  0.49388286  0.65651549  0.94480399    -0.02800
C1568       C  0.46667555  0.62713361  0.94106425     0.04000
N1569       N  0.45180292  0.60704782  0.88766457     0.66500
H1570       H  0.93602484  0.58820298  0.97864147     0.15400
H1571       H  0.52498178  0.69954406  0.00237644     0.15100
N1572       N  0.99438531  0.68610274  0.09013254     0.74200
O1573       O  0.45735423  0.58369919  0.87318846    -0.39300
O1574       O  0.42645111  0.60713393  0.86513773    -0.39200
O1575       O  0.01868453  0.68880596  0.12153090    -0.39900
O1576       O  0.98586508  0.70787267  0.09707173    -0.40000
C1577       C  0.93966685  0.74315073  0.25144964    -0.12300
C1578       C  0.93154267  0.71687736  0.20874688     0.04700
C1579       C  0.91157262  0.71323816  0.15879823    -0.07500
C1580       C  0.89701946  0.73359742  0.15587075    -0.08300
C1581       C  0.90240878  0.75787094  0.20179602    -0.02800
C1582       C  0.92578567  0.76369031  0.24822048     0.04000
N1583       N  0.93579382  0.79032244  0.29284389     0.66500
H1584       H  0.95583665  0.74696810  0.28928849     0.15400
H1585       H  0.87986592  0.72913273  0.11911436     0.15100
N1586       N  0.90390147  0.68785756  0.11253719     0.74200
O1587       O  0.92270579  0.78741290  0.33807540    -0.39300
O1588       O  0.96266338  0.81366507  0.29303512    -0.39200
O1589       O  0.87879767  0.66255730  0.11084516    -0.39900
O1590       O  0.91713166  0.69320461  0.06787271    -0.40000
C1591       C  0.93958249  0.00077611  0.30548119    -0.12300
C1592       C  0.91954933  0.50288272  0.25521936     0.04700
C1593       C  0.90086635  0.97752904  0.22026223    -0.07500
C1594       C  0.89495910  0.94767365  0.22971771    -0.08300
C1595       C  0.91166042  0.94358252  0.27592507    -0.02800
C1596       C  0.93329147  0.97083317  0.31555667     0.04000
N1597       N  0.94969241  0.96889851  0.36592772     0.66500
H1598       H  0.95732908  0.02109036  0.33495225     0.15400
H1599       H  0.87767355  0.92752383  0.19936070     0.15100
N1600       N  0.87913701  0.47544232  0.16884706     0.74200
O1601       O  0.97875801  0.97285976  0.36637516    -0.39300
O1602       O  0.93876083  0.97193214  0.41260487    -0.39200
O1603       O  0.88722880  0.46873690  0.12099093    -0.39900
O1604       O  0.85497747  0.97975410  0.18075334    -0.40000
C1605       C  0.80864330  0.57717270  0.32493919    -0.12300
C1606       C  0.78583588  0.57358964  0.28001422     0.04700
C1607       C  0.79743706  0.58068556  0.22745322    -0.07500
C1608       C  0.83096523  0.59364066  0.22282427    -0.08300
C1609       C  0.85393121  0.59943950  0.26905105    -0.02800
C1610       C  0.84209896  0.58930014  0.31977890     0.04000
N1611       N  0.86354564  0.59112328  0.36689919     0.66500
H1612       H  0.80058876  0.57139256  0.36523454     0.15400
H1613       H  0.83905611  0.60046667  0.18314663     0.15100
N1614       N  0.77603717  0.57720078  0.17900212     0.74200
O1615       O  0.87284491  0.61383720  0.40809085    -0.39300
O1616       O  0.86624368  0.56687002  0.37365969    -0.39200
O1617       O  0.77615089  0.60138898  0.16485160    -0.39900
O1618       O  0.76547035  0.55235489  0.14223514    -0.40000
C1619       C  0.54173095  0.57864078  0.28025539    -0.12300
C1620       C  0.53810117  0.59194005  0.23376764     0.04700
C1621       C  0.56004557  0.59608633  0.19325265    -0.07500
C1622       C  0.58367303  0.58516167  0.19779780    -0.08300
C1623       C  0.58576748  0.56949124  0.24185986    -0.02800
C1624       C  0.56541174  0.56764401  0.28494453     0.04000
N1625       N  0.56643933  0.55237964  0.33104215     0.66500
H1626       H  0.02092369  0.56938818  0.30099408     0.15400
H1627       H  0.59956485  0.58774474  0.16491167     0.15100
N1628       N  0.55803964  0.61048248  0.14627151     0.74200
O1629       O  0.58081797  0.56865425  0.37911476    -0.39300
O1630       O  0.54720939  0.52386735  0.32718584    -0.39200
O1631       O  0.57781520  0.63859929  0.14763810    -0.39900
O1632       O  0.54202454  0.59363042  0.09952989    -0.40000
loop_ 
_geom_bond_atom_site_label_1 
_geom_bond_atom_site_label_2 
_geom_bond_distance 
_geom_bond_site_symmetry_2 
_ccdc_geom_bond_type 
O1           Ni7   1.940       .  S
O1           C22   1.277       .  A
O2          Ni25   1.926       .  S
O2           C11   1.275       .  A
O3           Ni7   1.880       .  S
O3          Ni25   1.887       .  S
O3          Ni19   1.905       .  S
O3           H26   0.965       .  S
C4           O21   1.270       .  A
C4           O13   1.272       .  A
C4          C354   1.481       .  S
O5          Ni24   1.918       .  S
O5           C11   1.270       .  A
O6          Ni24   1.898       .  S
O6            C8   1.270       .  A
Ni7          O10   1.932       .  S
Ni7         O828   1.911       .  S
C8           O18   1.292       .  A
C8          C385   1.509       .  S
O9          Ni25   1.957       .  S
O9           C15   1.293       .  A
O10          C15   1.285       .  A
C11         C326   1.497       .  S
O12        Ni823   1.909       .  S
O12          C14   1.267   1_655  A
O13         Ni24   1.925       .  S
C14         O836   1.269       .  A
C14         C396   1.471       .  S
C15         C368   1.502       .  S
H16          O17   0.968       .  S
O17         Ni25   1.931       .  S
O17         Ni19   1.910       .  S
O17         Ni24   1.902       .  S
O18         Ni19   1.987       .  S
Ni19         O23   1.917       .  S
Ni19         O21   1.915       .  S
O20         Ni25   1.932       .  S
O20         C830   1.272       .  A
C22          O23   1.279       .  A
C22         C340   1.491       .  S
O27         Ni33   1.924       .  S
O27          C48   1.272       .  A
O28         Ni51   1.913       .  S
O28          C37   1.276       .  A
O29         Ni33   1.908       .  S
O29         Ni51   1.906       .  S
O29         Ni45   1.934       .  S
O29          H52   0.967       .  S
C30          O47   1.286       .  A
C30          O39   1.276       .  A
C30         C315   1.472       .  S
O31         Ni50   1.884       .  S
O31          C37   1.267       .  A
O32         Ni50   1.909       .  S
O32          C34   1.266       .  A
Ni33         O36   1.919       .  S
Ni33         O38   1.921       .  S
C34          O44   1.279       .  A
C34         C371   1.503       .  S
O35         Ni51   1.922       .  S
O35          C41   1.274       .  A
O36          C41   1.270       .  A
C37         C284   1.455       .  S
O38          C40   1.279       .  A
O39         Ni50   1.885       .  S
C40          O46   1.285       .  A
C40         C357   1.487       .  S
C41         C298   1.481       .  S
H42          O43   0.960       .  S
O43         Ni51   1.893       .  S
O43         Ni45   1.855       .  S
O43         Ni50   1.861       .  S
O44         Ni45   1.947       .  S
Ni45         O49   1.889       .  S
Ni45         O47   1.937       .  S
O46         Ni51   1.957       .  S
C48          O49   1.270       .  A
C48         C270   1.475       .  S
O53         Ni59   1.975       .  S
O53          C74   1.289       .  A
O54         Ni77   1.966       .  S
O54          C63   1.272       .  A
O55         Ni59   1.883       .  S
O55         Ni77   1.914       .  S
O55         Ni71   1.906       .  S
O55          H78   0.966       .  S
C56          O73   1.279       .  A
C56          O65   1.274       .  A
C56         C312   1.472       .  S
O57         Ni76   1.888       .  S
O57          C63   1.253       .  A
O58         Ni76   1.891       .  S
O58          C60   1.264       .  A
Ni59         O62   1.939       .  S
Ni59         O64   1.929       .  S
C60          O70   1.274       .  A
C60         C399   1.487       .  S
O61         Ni77   1.929       .  S
O61          C67   1.289       .  A
O62          C67   1.285       .  A
C63         C256   1.498       .  S
O64          C66   1.277       .  A
O65        Ni484   1.899       .  S
C66          O72   1.274       .  A
C66         C382   1.506       .  S
C67         C301   1.490       .  S
H68          O69   0.967       .  S
O69         Ni77   1.914       .  S
O69         Ni71   1.917       .  S
O69         Ni76   1.911       .  S
O70         Ni71   1.948       .  S
Ni71         O75   1.942       .  S
Ni71        O481   1.918   1_545  S
O72         Ni77   1.930       .  S
O73        Ni479   1.915       .  S
C74          O75   1.279       .  A
C74         C242   1.528       .  S
Ni76        O473   1.895   1_545  S
O79         Ni85   1.912       .  S
O79         C100   1.274       .  A
O80        Ni103   1.887       .  S
O80          C89   1.271       .  A
O81         Ni85   1.865       .  S
O81        Ni103   1.864       .  S
O81         Ni97   1.907       .  S
O81         H104   0.964       .  S
C82          O99   1.278       .  A
C82          O91   1.264       .  A
C82         C200   1.489       .  S
O83        Ni102   1.906       .  S
O83          C89   1.266       .  A
O84        Ni102   1.908       .  S
O84          C86   1.280       .  A
Ni85         O88   1.913       .  S
Ni85         O90   1.910       .  S
C86          O96   1.292       .  A
C86         C214   1.493       .  S
O87        Ni103   1.947       .  S
O87          C93   1.287       .  A
O88          C93   1.280       .  A
C89         C287   1.474       .  S
O90          C92   1.269       .  A
O91        Ni102   1.914       .  S
C92          O98   1.281       .  A
C92         C231   1.495       .  S
C93         C186   1.486       .  S
H94          O95   0.966       .  S
O95        Ni103   1.956       .  S
O95         Ni97   1.904       .  S
O95        Ni102   1.908       .  S
O96         Ni97   1.971       .  S
Ni97        O101   1.910       .  S
Ni97         O99   1.950       .  S
O98        Ni103   1.959       .  S
C100        O101   1.283       .  A
C100        C273   1.485       .  S
O105       Ni111   1.959       .  S
O105        C126   1.281       .  A
O106       Ni129   1.959       .  S
O106        C115   1.271       .  A
O107       Ni111   1.880       .  S
O107       Ni129   1.908       .  S
O107       Ni123   1.904       .  S
O107        H130   0.965       .  S
C108        O125   1.279       .  A
C108        O117   1.277       .  A
C108        C172   1.475       .  S
O109       Ni128   1.900       .  S
O109        C115   1.260       .  A
O110       Ni128   1.904       .  S
O110        C112   1.268       .  A
Ni111       O114   1.933       .  S
Ni111       O116   1.904       .  S
C112        O122   1.285       .  A
C112        C228   1.497       .  S
O113       Ni129   1.941       .  S
O113        C119   1.289       .  A
O114        C119   1.286       .  A
C115        C259   1.495       .  S
O116        C118   1.268       .  A
O117       Ni536   1.912   1_545  S
C118        O124   1.274       .  A
C118        C217   1.483       .  S
C119        C158   1.497       .  S
H120        O121   0.969       .  S
O121       Ni129   1.924       .  S
O121       Ni123   1.914       .  S
O121       Ni128   1.905       .  S
O122       Ni123   1.974       .  S
Ni123       O127   1.946       .  S
Ni123       O533   1.916       .  S
O124       Ni129   1.931       .  S
O125       Ni531   1.913   1_545  S
C126        O127   1.284       .  A
C126        C245   1.524       .  S
Ni128       O525   1.912       .  S
O131       Ni137   1.886       .  S
O131        C152   1.250       .  A
O132       Ni155   1.902       .  S
O132        C141   1.273       .  A
O133       Ni137   1.908       .  S
O133       Ni155   1.890       .  S
O133       Ni149   1.938       .  S
O133        H156   0.992       .  S
C134        O151   1.285       .  A
C134        O143   1.286       .  A
C134        C203   1.494       .  S
O135       Ni154   1.970       .  S
O135        C141   1.290       .  A
O136       Ni154   1.933       .  S
O136        C138   1.276       .  A
Ni137       O142   1.881       .  S
Ni137       O956   1.909   1_455  S
C138        O148   1.274       .  A
C138        C161   1.506       .  S
O139       Ni971   1.936       .  S
O139        C145   1.286       .  A
O140       Ni953   1.918       .  S
O140        C145   1.277       .  A
C141        C343   1.507   1_455  S
O142        C144   1.261       .  A
O143       Ni154   1.949       .  S
C144        O150   1.268       .  A
C144        C175   1.479       .  S
C145        C189   1.495       .  S
H146        O147   0.965       .  S
O147       Ni155   1.917       .  S
O147       Ni149   1.892       .  S
O147       Ni154   1.888       .  S
O148       Ni149   1.920       .  S
Ni149       O153   1.944       .  S
Ni149       O151   1.926       .  S
O150       Ni155   1.920       .  S
C152        O153   1.268       .  A
C152        C329   1.476       .  S
Ni155       O955   1.947   1_455  S
C157        C158   1.407       .  A
C157        C162   1.408       .  A
C157        H164   1.084       .  S
C158        C159   1.414       .  A
C159        C160   1.402       .  A
C159        N166   1.431       .  S
C160        C161   1.411       .  A
C160        H165   1.081       .  S
C161        C162   1.417       .  A
C162        N163   1.428       .  S
N163        O167   1.262       .  A
N163        O168   1.262       .  A
N166        O170   1.262       .  A
N166        O169   1.262       .  A
C171        C172   1.408       .  A
C171        C176   1.395       .  A
C171        H178   1.084       .  S
C172        C173   1.408       .  A
C173        C174   1.394       .  A
C173        N180   1.428       .  S
C174        C175   1.408       .  A
C174        H179   1.084       .  S
C175        C176   1.410       .  A
C176        N177   1.429       .  S
N177        O181   1.262       .  A
N177        O182   1.262       .  A
N180        O184   1.262       .  A
N180        O183   1.262       .  A
C185        C190   1.404       .  A
C185        C594   1.401       .  A
C185        H192   1.083   1_545  S
C186        C593   1.400       .  A
C186        C595   1.413       .  A
C187        C188   1.402       .  A
C187        C594   1.411       .  A
C187        N602   1.432       .  S
C188        C189   1.400       .  A
C188        H193   1.075       .  S
C189        C190   1.420       .  A
C190        N191   1.430       .  S
N191        O195   1.262       .  A
N191        O196   1.262       .  A
N194        C595   1.432       .  S
N194        O198   1.262       .  A
N194        O197   1.262       .  A
C199        C200   1.408       .  A
C199        C204   1.414       .  A
C199        H206   1.084       .  S
C200        C201   1.416       .  A
C201        C202   1.401       .  A
C201        N208   1.430       .  S
C202        C203   1.402       .  A
C202        H207   1.084       .  S
C203        C204   1.414       .  A
C204        N205   1.428       .  S
N205        O209   1.262       .  A
N205        O210   1.262       .  A
N208        O212   1.262       .  A
N208        O211   1.262       .  A
C213        C214   1.407       .  A
C213        C218   1.405       .  A
C213        H220   1.084       .  S
C214        C215   1.418       .  A
C215        C216   1.399       .  A
C215        N222   1.429       .  S
C216        C217   1.402       .  A
C216        H221   1.084       .  S
C217        C218   1.412       .  A
C218        N219   1.428       .  S
N219        O223   1.262       .  A
N219        O224   1.262       .  A
N222        O226   1.262       .  A
N222        O225   1.262       .  A
C227        C232   1.411       .  A
C227       C1044   1.404       .  A
C227       H1050   1.084       .  S
C228       C1043   1.401   1_455  A
C228       C1045   1.420   1_455  A
C229        C230   1.405       .  A
C229       C1044   1.424       .  A
C229        N236   1.429       .  S
C230        C231   1.400       .  A
C230        H235   1.084       .  S
C231        C232   1.417       .  A
C232        N233   1.423       .  S
N233        O237   1.260       .  A
N233        O238   1.260       .  A
H234       C1043   1.084   1_455  S
N236        O240   1.262       .  A
N236       O1055   1.262       .  A
O239       N1052   1.262       .  A
C241        C246   1.416       .  A
C241        C650   1.408       .  A
C241        H248   1.084       .  S
C242        C243   1.422       .  A
C242        C649   1.408       .  A
C243        C244   1.420   1_545  A
C243        N250   1.428       .  S
C244        C653   1.410       .  A
C244        H249   1.082       .  S
C245        C246   1.424       .  A
C245        C652   1.408       .  A
C246        N247   1.429       .  S
N247        O251   1.262       .  A
N247        O252   1.262       .  A
N250        O254   1.262       .  A
N250        O253   1.262       .  A
C255        C256   1.412       .  A
C255        C668   1.421   1_544  A
C255        H262   1.084       .  S
C256        C257   1.412   1_554  A
C257        C258   1.402       .  A
C257        N264   1.429       .  S
C258        C667   1.405   1_545  A
C258        H263   1.083       .  S
C259        C260   1.413       .  A
C259        C666   1.406       .  A
C260        C663   1.416   1_556  A
C260        N261   1.428   1_556  S
N261        O265   1.262   1_554  A
N261        O266   1.262       .  A
N264        O268   1.262   1_556  A
N264        O267   1.262       .  A
C269        C270   1.396       .  A
C269        C274   1.393   1_554  A
C269        H276   1.084       .  S
C270        C271   1.416       .  A
C271        C272   1.401   1_554  A
C271        N278   1.429       .  S
C272        C273   1.403       .  A
C272        H277   1.084       .  S
C273        C274   1.422       .  A
C274        N275   1.429       .  S
N275        O279   1.261   1_556  A
N275        O280   1.262       .  A
N278        O282   1.262   1_554  A
N278        O281   1.262       .  A
C283        C284   1.397       .  A
C283        C288   1.398       .  A
C283        H290   1.084       .  S
C284        C285   1.409       .  A
C285        C286   1.384       .  A
C285        N292   1.432       .  S
C286        C287   1.399       .  A
C286        H291   1.079       .  S
C287        C288   1.419       .  A
C288        N289   1.428       .  S
N289        O293   1.262       .  A
N289        O294   1.262       .  A
N292        O296   1.262       .  A
N292        O295   1.262       .  A
C297        C298   1.402       .  A
C297        C302   1.407       .  A
C297        H304   1.084       .  S
C298        C299   1.413       .  A
C299        C300   1.394       .  A
C299        N306   1.430       .  S
C300        C301   1.403       .  A
C300        H305   1.084       .  S
C301        C302   1.419       .  A
C302        N303   1.428       .  S
N303        O307   1.262       .  A
N303        O308   1.262       .  A
N306        O310   1.262       .  A
N306        O309   1.262       .  A
C311        C312   1.410       .  A
C311        C316   1.392       .  A
C311        H318   1.084       .  S
C312        C313   1.406       .  A
C313        C314   1.392       .  A
C313        N728   1.430       .  S
C314       C1131   1.410   1_455  A
C314       H1135   1.084       .  S
C315       C1130   1.410       .  A
C315       C1132   1.406       .  A
C316       C1131   1.407   1_455  A
C316       N1133   1.429   1_455  S
N317       C1132   1.430       .  S
N317       O1137   1.262       .  A
N317        O322   1.262       .  A
H319       C1130   1.084       .  S
N320        C721   1.429       .  S
N320        O324   1.261       .  A
N320        O323   1.262       .  A
O321       N1133   1.262       .  A
C325        C326   1.414       .  A
C325        C330   1.403       .  A
C325        H332   1.083       .  S
C326       C1143   1.413       .  A
C327        C328   1.405       .  A
C327       C1142   1.415       .  A
C327        N334   1.427       .  S
C328        C329   1.407       .  A
C328        H333   1.084       .  S
C329       C1146   1.404       .  A
C330       C1145   1.407       .  A
C330        N331   1.429       .  S
N331        O335   1.262       .  A
N331       O1152   1.262       .  A
N334        O338   1.262       .  A
N334        O337   1.262       .  A
O336       N1147   1.261   1_655  A
C339        C340   1.396   1_556  A
C339       C1160   1.404       .  A
C339        H346   1.084       .  S
C340        C341   1.416       .  A
C341       C1158   1.413   1_554  A
C341        N348   1.427       .  S
C342        C343   1.408       .  A
C342       C1157   1.413   1_556  A
C342        H347   1.083   1_655  S
C343        C344   1.419       .  A
C344       C1155   1.400       .  A
C344        N345   1.422       .  S
N345        O349   1.262       .  A
N345        O350   1.257       .  A
N348        O352   1.261       .  A
N348        O351   1.262       .  A
C353        C354   1.402       .  A
C353        C358   1.397       .  A
C353        H360   1.084       .  S
C354        C355   1.413       .  A
C355        C356   1.408       .  A
C355        N362   1.429       .  S
C356        C357   1.407       .  A
C356        H361   1.084       .  S
C357        C358   1.413       .  A
C358        N359   1.428       .  S
N359        O363   1.262       .  A
N359        O364   1.262       .  A
N362        O366   1.262       .  A
N362        O365   1.262       .  A
C367        C372   1.406       .  A
C367        C776   1.403       .  A
C367        H374   1.084       .  S
C368        C775   1.404       .  A
C368        C777   1.419   1_545  A
C369        C370   1.405       .  A
C369        C776   1.423       .  A
C369        N784   1.429       .  S
C370        C371   1.403       .  A
C370        H375   1.084       .  S
C371        C372   1.423       .  A
C372        N373   1.429       .  S
N373        O377   1.262       .  A
N373        O378   1.262       .  A
N376        C777   1.428       .  S
N376        O788   1.262       .  A
N376        O379   1.261       .  A
O380        N784   1.262       .  A
C381        C382   1.402       .  A
C381        C386   1.402       .  A
C381        H388   1.084       .  S
C382        C383   1.423       .  A
C383        C384   1.413       .  A
C383        N390   1.427       .  S
C384        C385   1.405       .  A
C384        H389   1.084       .  S
C385        C386   1.425       .  A
C386        N387   1.429       .  S
N387        O391   1.262       .  A
N387        O392   1.262       .  A
N390        O394   1.262       .  A
N390        O393   1.262       .  A
C395        C396   1.402       .  A
C395        C400   1.400       .  A
C395       H1218   1.083       .  S
C396        C397   1.405       .  A
C397        C398   1.400       .  A
C397        N404   1.429       .  S
C398        C399   1.411       .  A
C398        H403   1.084       .  S
C399        C400   1.411       .  A
C400        N401   1.427       .  S
N401        O405   1.261       .  A
N401        O406   1.262       .  A
H402       C1211   1.083       .  S
N404        O408   1.262       .  A
N404        O407   1.262       .  A
O409       Ni415   1.933       .  S
O409        C430   1.275       .  A
O410       Ni433   1.927       .  S
O410        C419   1.276       .  A
O411       Ni415   1.880       .  S
O411       Ni433   1.884       .  S
O411       Ni427   1.901       .  S
O411        H434   0.965       .  S
C412        O429   1.268       .  A
C412        O421   1.272       .  A
C412        C762   1.487       .  S
O413       Ni432   1.912       .  S
O413        C419   1.270       .  A
O414       Ni432   1.891       .  S
O414        C416   1.269       .  A
Ni415       O418   1.922       .  S
Ni415      O1236   1.910       .  S
C416        O426   1.296       .  A
C416        C793   1.507       .  S
O417       Ni433   1.965       .  S
O417        C423   1.296       .  A
O418        C423   1.282       .  A
C419        C734   1.496       .  S
O420      Ni1231   1.909       .  S
O420        C422   1.267   1_655  A
O421       Ni432   1.929       .  S
C422       O1244   1.272   1_455  A
C422        C804   1.475       .  S
C423        C776   1.504       .  S
H424        O425   0.968       .  S
O425       Ni433   1.940       .  S
O425       Ni427   1.910       .  S
O425       Ni432   1.903       .  S
O426       Ni427   1.993       .  S
Ni427       O431   1.920       .  S
Ni427       O429   1.919       .  S
O428       Ni433   1.927       .  S
O428       C1238   1.270       .  A
C430        O431   1.280       .  A
C430        C748   1.488       .  S
O435       Ni441   1.943       .  S
O435        C456   1.277       .  A
O436       Ni459   1.910       .  S
O436        C445   1.276       .  A
O437       Ni441   1.910       .  S
O437       Ni459   1.905       .  S
O437       Ni453   1.926       .  S
O437        H460   0.967       .  S
C438        O455   1.283       .  A
C438        O447   1.276       .  A
C438        C723   1.465       .  S
O439       Ni458   1.892       .  S
O439        C445   1.271       .  A
O440       Ni458   1.920       .  S
O440        C442   1.269       .  A
Ni441       O444   1.930       .  S
Ni441       O446   1.936       .  S
C442        O452   1.279       .  A
C442        C779   1.505       .  S
O443       Ni459   1.924       .  S
O443        C449   1.277       .  A
O444        C449   1.274       .  A
C445        C692   1.451       .  S
O446        C448   1.282       .  A
O447       Ni458   1.887       .  S
C448        O454   1.280       .  A
C448        C765   1.491       .  S
C449        C706   1.488       .  S
H450        O451   0.961       .  S
O451       Ni459   1.896       .  S
O451       Ni453   1.861       .  S
O451       Ni458   1.868       .  S
O452       Ni453   1.942       .  S
Ni453       O457   1.891       .  S
Ni453       O455   1.930       .  S
O454       Ni459   1.946       .  S
C456        O457   1.269       .  A
C456        C678   1.488       .  S
O461       Ni467   1.977       .  S
O461        C482   1.290       .  A
O462       Ni485   1.955       .  S
O462        C471   1.270       .  A
O463       Ni467   1.889       .  S
O463       Ni485   1.909       .  S
O463       Ni479   1.908       .  S
O463        H486   0.966       .  S
C464        O481   1.281       .  A
C464        O473   1.273       .  A
C464        C720   1.474       .  S
O465       Ni484   1.891       .  S
O465        C471   1.255       .  A
O466       Ni484   1.894       .  S
O466        C468   1.266       .  A
Ni467       O470   1.944       .  S
Ni467       O472   1.929       .  S
C468        O478   1.276       .  A
C468        C807   1.491       .  S
O469       Ni485   1.929       .  S
O469        C475   1.288       .  A
O470        C475   1.287       .  A
C471        C664   1.490       .  S
O472        C474   1.276       .  A
C474        O480   1.272       .  A
C474        C790   1.503       .  S
C475        C709   1.491       .  S
H476        O477   0.967       .  S
O477       Ni485   1.917       .  S
O477       Ni479   1.909       .  S
O477       Ni484   1.907       .  S
O478       Ni479   1.952       .  S
Ni479       O483   1.930       .  S
O480       Ni485   1.926       .  S
C482        O483   1.276       .  A
C482        C650   1.522       .  S
O487       Ni493   1.921       .  S
O487        C508   1.277       .  A
O488       Ni511   1.887       .  S
O488        C497   1.268       .  A
O489       Ni493   1.871       .  S
O489       Ni511   1.869       .  S
O489       Ni505   1.906       .  S
O489        H512   0.965       .  S
C490        O507   1.278       .  A
C490        O499   1.265       .  A
C490        C608   1.488       .  S
O491       Ni510   1.910       .  S
O491        C497   1.267       .  A
O492       Ni510   1.905       .  S
O492        C494   1.278       .  A
Ni493       O496   1.920       .  S
Ni493       O498   1.916       .  S
C494        O504   1.292       .  A
C494        C622   1.497       .  S
O495       Ni511   1.942       .  S
O495        C501   1.285       .  A
O496        C501   1.282       .  A
C497        C695   1.468       .  S
O498        C500   1.269       .  A
O499       Ni510   1.916       .  S
C500        O506   1.278       .  A
C500        C639   1.492       .  S
C501        C594   1.487   1_565  S
H502        O503   0.966       .  S
O503       Ni511   1.952       .  S
O503       Ni505   1.908       .  S
O503       Ni510   1.910       .  S
O504       Ni505   1.975       .  S
Ni505       O509   1.918       .  S
Ni505       O507   1.948       .  S
O506       Ni511   1.949       .  S
C508        O509   1.284       .  A
C508        C681   1.487       .  S
O513       Ni519   1.967       .  S
O513        C534   1.283       .  A
O514       Ni537   1.966       .  S
O514        C523   1.272       .  A
O515       Ni519   1.878       .  S
O515       Ni537   1.912       .  S
O515       Ni531   1.906       .  S
O515        H538   0.965       .  S
C516        O533   1.279       .  A
C516        O525   1.276       .  A
C516        C580   1.478       .  S
O517       Ni536   1.897       .  S
O517        C523   1.260       .  A
O518       Ni536   1.905       .  S
O518        C520   1.267       .  A
Ni519       O522   1.940       .  S
Ni519       O524   1.904       .  S
C520        O530   1.284       .  A
C520        C636   1.497       .  S
O521       Ni537   1.942       .  S
O521        C527   1.289       .  A
O522        C527   1.288       .  A
C523        C667   1.503       .  S
O524        C526   1.269       .  A
C526        O532   1.274       .  A
C526        C625   1.487       .  S
C527        C566   1.502       .  S
H528        O529   0.969       .  S
O529       Ni537   1.923       .  S
O529       Ni531   1.911       .  S
O529       Ni536   1.903       .  S
O530       Ni531   1.973       .  S
Ni531       O535   1.948       .  S
O532       Ni537   1.932       .  S
C534        O535   1.284       .  A
C534        C653   1.531       .  S
O539       Ni545   1.885       .  S
O539        C560   1.250       .  A
O540       Ni563   1.907       .  S
O540        C549   1.274       .  A
O541       Ni545   1.910       .  S
O541       Ni563   1.893       .  S
O541       Ni557   1.942       .  S
O541        H564   0.969       .  S
C542        O559   1.285       .  A
C542        O551   1.285       .  A
C542        C611   1.491       .  S
O543       Ni562   1.969       .  S
O543        C549   1.289       .  A
O544       Ni562   1.935       .  S
O544        C546   1.277       .  A
Ni545      O1364   1.914   1_455  S
Ni545       O550   1.877       .  S
C546        O556   1.275       .  A
C546        C569   1.508       .  S
O547      Ni1379   1.944       .  S
O547        C553   1.288       .  A
O548      Ni1361   1.912       .  S
O548        C553   1.276       .  A
C549        C751   1.508   1_455  S
O550        C552   1.260       .  A
O551       Ni562   1.944       .  S
C552        O558   1.270       .  A
C552        C583   1.483       .  S
C553        C597   1.495       .  S
H554        O555   0.964       .  S
O555       Ni563   1.916       .  S
O555       Ni557   1.895       .  S
O555       Ni562   1.890       .  S
O556       Ni557   1.924       .  S
Ni557       O561   1.944       .  S
Ni557       O559   1.932       .  S
O558       Ni563   1.929       .  S
C560        O561   1.267       .  A
C560        C737   1.476       .  S
Ni563      O1363   1.944   1_455  S
C565        C566   1.408       .  A
C565        C570   1.409       .  A
C565        H572   1.084       .  S
C566        C567   1.415       .  A
C567        C568   1.405       .  A
C567        N574   1.430       .  S
C568        C569   1.411       .  A
C568        H573   1.081       .  S
C569        C570   1.417       .  A
C570        N571   1.428       .  S
N571        O575   1.262       .  A
N571        O576   1.262       .  A
N574        O578   1.262       .  A
N574        O577   1.262       .  A
C579        C580   1.409       .  A
C579        C584   1.396       .  A
C579        H586   1.084       .  S
C580        C581   1.409       .  A
C581        C582   1.395       .  A
C581        N588   1.429       .  S
C582        C583   1.410       .  A
C582        H587   1.084       .  S
C583        C584   1.410       .  A
C584        N585   1.429       .  S
N585        O589   1.262       .  A
N585        O590   1.262       .  A
N588        O592   1.262       .  A
N588        O591   1.262       .  A
C593        C598   1.404       .  A
C593        H600   1.082       .  S
C595        C596   1.402       .  A
C596        C597   1.400       .  A
C596        H601   1.074       .  S
C597        C598   1.422       .  A
C598        N599   1.430       .  S
N599        O603   1.262       .  A
N599        O604   1.262       .  A
N602        O606   1.262       .  A
N602        O605   1.262       .  A
C607        C608   1.407       .  A
C607        C612   1.411       .  A
C607        H614   1.084       .  S
C608        C609   1.415       .  A
C609        C610   1.404       .  A
C609        N616   1.429       .  S
C610        C611   1.402       .  A
C610        H615   1.084       .  S
C611        C612   1.412       .  A
C612        N613   1.429       .  S
N613        O617   1.262       .  A
N613        O618   1.262       .  A
N616        O620   1.262       .  A
N616        O619   1.262       .  A
C621        C622   1.409       .  A
C621        C626   1.408       .  A
C621        H628   1.083       .  S
C622        C623   1.420       .  A
C623        C624   1.398       .  A
C623        N630   1.429       .  S
C624        C625   1.401       .  A
C624        H629   1.084       .  S
C625        C626   1.413       .  A
C626        N627   1.428       .  S
N627        O631   1.262       .  A
N627        O632   1.262       .  A
N630        O634   1.262       .  A
N630        O633   1.262       .  A
C635       C1452   1.400       .  A
C635        C640   1.406       .  A
C635       H1458   1.084       .  S
C636       C1451   1.403   1_455  A
C636       C1453   1.420   1_455  A
C637       C1452   1.421       .  A
C637        C638   1.408       .  A
C637        N644   1.429       .  S
C638        C639   1.401       .  A
C638        H643   1.084       .  S
C639        C640   1.416       .  A
C640        N641   1.423       .  S
N641        O645   1.260       .  A
N641        O646   1.262       .  A
H642       C1451   1.084   1_455  S
N644        O648   1.262       .  A
N644       O1463   1.262       .  A
O647       N1460   1.262       .  A
C649        C654   1.419   1_545  A
C649        H656   1.084       .  S
C650        C651   1.422       .  A
C651        C652   1.417       .  A
C651        N658   1.428       .  S
C652        H657   1.083       .  S
C653        C654   1.425       .  A
C654        N655   1.428       .  S
N655        O659   1.262       .  A
N655        O660   1.262   1_565  A
N658        O662   1.261       .  A
N658        O661   1.262       .  A
C663        C664   1.410       .  A
C663        H670   1.084       .  S
C664        C665   1.409   1_554  A
C665        C666   1.404       .  A
C665        N672   1.428       .  S
C666        H671   1.084       .  S
C667        C668   1.415       .  A
C668        N669   1.427       .  S
N669        O673   1.262       .  A
N669        O674   1.262   1_556  A
N672        O676   1.262   1_556  A
N672        O675   1.262       .  A
C677        C678   1.402       .  A
C677        C682   1.397       .  A
C677        H684   1.084       .  S
C678        C679   1.417       .  A
C679        C680   1.405   1_554  A
C679        N686   1.428       .  S
C680        C681   1.403       .  A
C680        H685   1.084       .  S
C681        C682   1.418   1_556  A
C682        N683   1.430       .  S
N683        O687   1.261       .  A
N683        O688   1.262   1_554  A
N686        O690   1.262   1_554  A
N686        O689   1.262       .  A
C691        C692   1.398       .  A
C691        C696   1.397       .  A
C691        H698   1.085       .  S
C692        C693   1.406       .  A
C693        C694   1.389       .  A
C693        N700   1.430       .  S
C694        C695   1.403       .  A
C694        H699   1.084       .  S
C695        C696   1.414       .  A
C696        N697   1.428       .  S
N697        O701   1.262       .  A
N697        O702   1.262       .  A
N700        O704   1.262       .  A
N700        O703   1.262       .  A
C705        C706   1.405       .  A
C705        C710   1.409       .  A
C705        H712   1.084       .  S
C706        C707   1.415       .  A
C707        C708   1.396       .  A
C707        N714   1.430       .  S
C708        C709   1.402       .  A
C708        H713   1.084       .  S
C709        C710   1.417       .  A
C710        N711   1.428       .  S
N711        O715   1.262       .  A
N711        O716   1.262       .  A
N714        O718   1.262       .  A
N714        O717   1.262       .  A
C719        C720   1.413       .  A
C719        C724   1.393       .  A
C719        H726   1.084       .  S
C720        C721   1.405       .  A
C721        C722   1.390       .  A
C722       C1539   1.411   1_455  A
C722       H1543   1.084       .  S
C723       C1538   1.408       .  A
C723       C1540   1.406       .  A
C724       C1539   1.406   1_455  A
C724       N1541   1.430   1_455  S
N725       C1540   1.430       .  S
N725       O1545   1.262       .  A
N725        O730   1.262       .  A
H727       C1538   1.084       .  S
N728        O732   1.261       .  A
N728        O731   1.262       .  A
O729       N1541   1.262       .  A
C733        C734   1.414       .  A
C733        C738   1.399       .  A
C733        H740   1.083       .  S
C734       C1551   1.413       .  A
C735       C1550   1.413       .  A
C735        C736   1.403       .  A
C735        N742   1.428       .  S
C736        C737   1.408       .  A
C736        H741   1.084       .  S
C737       C1554   1.405       .  A
C738       C1553   1.405       .  A
C738        N739   1.428       .  S
N739        O743   1.261       .  A
N739       O1560   1.262       .  A
N742        O746   1.262       .  A
N742        O745   1.262       .  A
O744       N1555   1.262       .  A
C747        C748   1.397   1_556  A
C747       C1568   1.404       .  A
C747        H754   1.084       .  S
C748        C749   1.415       .  A
C749       C1566   1.413   1_554  A
C749        N756   1.428       .  S
C750       C1565   1.415   1_556  A
C750        C751   1.408       .  A
C750        H755   1.083   1_655  S
C751        C752   1.418       .  A
C752       C1563   1.401       .  A
C752        N753   1.420       .  S
N753        O757   1.262       .  A
N753        O758   1.258       .  A
N756        O760   1.262       .  A
N756        O759   1.262       .  A
C761        C762   1.401       .  A
C761        C766   1.398       .  A
C761        H768   1.084       .  S
C762        C763   1.414       .  A
C763        C764   1.410       .  A
C763        N770   1.428       .  S
C764        C765   1.406       .  A
C764        H769   1.084       .  S
C765        C766   1.415       .  A
C766        N767   1.429       .  S
N767        O771   1.262       .  A
N767        O772   1.262       .  A
N770        O774   1.262       .  A
N770        O773   1.262       .  A
C775        C780   1.407   1_545  A
C775        H782   1.084       .  S
C777        C778   1.405       .  A
C778        C779   1.405       .  A
C778        H783   1.084       .  S
C779        C780   1.423       .  A
C780        N781   1.429       .  S
N781        O785   1.262       .  A
N781        O786   1.262       .  A
N784        O787   1.262       .  A
C789        C790   1.402       .  A
C789        C794   1.404       .  A
C789        H796   1.084       .  S
C790        C791   1.422       .  A
C791        C792   1.410       .  A
C791        N798   1.426       .  S
C792        C793   1.402       .  A
C792        H797   1.084       .  S
C793        C794   1.427       .  A
C794        N795   1.430       .  S
N795        O799   1.262       .  A
N795        O800   1.262       .  A
N798        O802   1.262       .  A
N798        O801   1.262       .  A
C803        C804   1.404       .  A
C803        C808   1.405       .  A
C803       H1626   1.084       .  S
C804        C805   1.405       .  A
C805        C806   1.400       .  A
C805        N812   1.429       .  S
C806        C807   1.410       .  A
C806        H811   1.084       .  S
C807        C808   1.413       .  A
C808        N809   1.428       .  S
N809        O813   1.261       .  A
N809        O814   1.262       .  A
H810       C1619   1.083       .  S
N812        O816   1.262       .  A
N812        O815   1.262       .  A
O817       Ni823   1.930       .  S
O817        C838   1.276       .  A
O818       Ni841   1.930       .  S
O818        C827   1.277       .  A
O819       Ni823   1.878       .  S
O819       Ni841   1.884       .  S
O819       Ni835   1.897       .  S
O819        H842   0.965       .  S
C820        O837   1.266       .  A
C820        O829   1.269       .  A
C820       C1170   1.475       .  S
O821       Ni840   1.907       .  S
O821        C827   1.272       .  A
O822       Ni840   1.903       .  S
O822        C824   1.276       .  A
Ni823       O826   1.926       .  S
C824        O834   1.298       .  A
C824       C1201   1.507       .  S
O825       Ni841   1.964       .  S
O825        C831   1.294       .  A
O826        C831   1.283       .  A
C827       C1142   1.496   1_655  S
O828        C830   1.267       .  A
O829       Ni840   1.928       .  S
C830       C1212   1.480       .  S
C831       C1184   1.501       .  S
H832        O833   0.968       .  S
O833       Ni841   1.944       .  S
O833       Ni835   1.900       .  S
O833       Ni840   1.897       .  S
O834       Ni835   1.993       .  S
Ni835       O839   1.916       .  S
Ni835       O837   1.913       .  S
O836       Ni841   1.922   1_455  S
C838        O839   1.279       .  A
C838       C1156   1.486       .  S
O843       Ni849   1.941       .  S
O843        C864   1.276       .  A
O844       Ni867   1.915       .  S
O844        C853   1.280       .  A
O845       Ni849   1.907       .  S
O845       Ni867   1.908       .  S
O845       Ni861   1.937       .  S
O845        H868   0.967       .  S
C846        O863   1.286       .  A
C846        O855   1.275       .  A
C846       C1131   1.474       .  S
O847       Ni866   1.884       .  S
O847        C853   1.269       .  A
O848       Ni866   1.920       .  S
O848        C850   1.268       .  A
Ni849       O852   1.925       .  S
Ni849       O854   1.930       .  S
C850        O860   1.278       .  A
C850       C1187   1.504       .  S
O851       Ni867   1.932       .  S
O851        C857   1.278       .  A
O852        C857   1.271       .  A
C853       C1100   1.453       .  S
O854        C856   1.283       .  A
O855       Ni866   1.884       .  S
C856        O862   1.284       .  A
C856       C1173   1.485       .  S
C857       C1114   1.492       .  S
H858        O859   0.963       .  S
O859       Ni867   1.898       .  S
O859       Ni861   1.856       .  S
O859       Ni866   1.866       .  S
O860       Ni861   1.939       .  S
Ni861       O865   1.890       .  S
Ni861       O863   1.943       .  S
O862       Ni867   1.950       .  S
C864        O865   1.269       .  A
C864       C1086   1.486       .  S
O869       Ni875   1.982       .  S
O869        C890   1.291       .  A
O870       Ni893   1.964       .  S
O870        C879   1.272       .  A
O871       Ni875   1.885       .  S
O871       Ni893   1.915       .  S
O871       Ni887   1.906       .  S
O871        H894   0.966       .  S
C872        O889   1.281       .  A
C872        O881   1.273       .  A
C872       C1128   1.473       .  S
O873       Ni892   1.888       .  S
O873        C879   1.253       .  A
O874       Ni892   1.895       .  S
O874        C876   1.266       .  A
Ni875       O878   1.947       .  S
Ni875       O880   1.929       .  S
C876        O886   1.276       .  A
C876       C1215   1.498       .  S
O877       Ni893   1.931       .  S
O877        C883   1.289       .  A
O878        C883   1.288       .  A
C879       C1072   1.496       .  S
O880        C882   1.277       .  A
O881      Ni1300   1.892       .  S
C882        O888   1.274       .  A
C882       C1198   1.508       .  S
C883       C1117   1.495       .  S
H884        O885   0.967       .  S
O885       Ni893   1.915       .  S
O885       Ni887   1.914       .  S
O885       Ni892   1.909       .  S
O886       Ni887   1.955       .  S
Ni887       O891   1.939       .  S
Ni887      O1297   1.914   1_545  S
O888       Ni893   1.932       .  S
O889      Ni1295   1.921       .  S
C890        O891   1.277       .  A
C890       C1058   1.528       .  S
Ni892      O1289   1.895   1_545  S
O895       Ni901   1.928       .  S
O895        C916   1.278       .  A
O896       Ni919   1.886       .  S
O896        C905   1.267       .  A
O897       Ni901   1.875       .  S
O897       Ni919   1.868       .  S
O897       Ni913   1.908       .  S
O897        H920   0.965       .  S
C898        O915   1.278       .  A
C898        O907   1.265       .  A
C898       C1016   1.490       .  S
O899       Ni918   1.906       .  S
O899        C905   1.266       .  A
O900       Ni918   1.905       .  S
O900        C902   1.278       .  A
Ni901       O904   1.929       .  S
Ni901       O906   1.918       .  S
C902        O912   1.290       .  A
C902       C1030   1.492       .  S
O903       Ni919   1.936       .  S
O903        C909   1.282       .  A
O904        C909   1.283       .  A
C905       C1103   1.467       .  S
O906        C908   1.270       .  A
O907       Ni918   1.914       .  S
C908        O914   1.279       .  A
C908       C1047   1.493       .  S
C909       C1002   1.486       .  S
H910        O911   0.966       .  S
O911       Ni919   1.954       .  S
O911       Ni913   1.909       .  S
O911       Ni918   1.912       .  S
O912       Ni913   1.965       .  S
Ni913       O917   1.910       .  S
Ni913       O915   1.950       .  S
O914       Ni919   1.951       .  S
C916        O917   1.281       .  A
C916       C1089   1.491       .  S
O921       Ni927   1.968       .  S
O921        C942   1.282       .  A
O922       Ni945   1.950       .  S
O922        C931   1.273       .  A
O923       Ni927   1.881       .  S
O923       Ni945   1.910       .  S
O923       Ni939   1.903       .  S
O923        H946   0.965       .  S
C924        O941   1.282       .  A
C924        O933   1.277       .  A
C924        C988   1.482       .  S
O925       Ni944   1.910       .  S
O925        C931   1.261       .  A
O926       Ni944   1.903       .  S
O926        C928   1.267       .  A
Ni927       O930   1.942       .  S
Ni927       O932   1.897       .  S
C928        O938   1.287       .  A
C928       C1044   1.506       .  S
O929       Ni945   1.931       .  S
O929        C935   1.285       .  A
O930        C935   1.288       .  A
C931       C1075   1.491       .  S
O932        C934   1.267       .  A
O933      Ni1352   1.913   1_545  S
C934        O940   1.276       .  A
C934       C1033   1.483       .  S
C935        C974   1.494       .  S
H936        O937   0.969       .  S
O937       Ni945   1.910       .  S
O937       Ni939   1.909       .  S
O937       Ni944   1.907       .  S
O938       Ni939   1.979       .  S
Ni939       O943   1.951       .  S
Ni939      O1349   1.904       .  S
O940       Ni945   1.934       .  S
O941      Ni1347   1.920   1_545  S
C942        O943   1.284       .  A
C942       C1061   1.532       .  S
Ni944      O1341   1.915       .  S
O947       Ni953   1.886       .  S
O947        C968   1.251       .  A
O948       Ni971   1.912       .  S
O948        C957   1.275       .  A
O949       Ni953   1.904       .  S
O949       Ni971   1.895       .  S
O949       Ni965   1.933       .  S
O949        H972   0.980       .  S
C950        O967   1.288       .  A
C950        O959   1.285       .  A
C950       C1019   1.491       .  S
O951       Ni970   1.965       .  S
O951        C957   1.288       .  A
O952       Ni970   1.933       .  S
O952        C954   1.274       .  A
Ni953       O958   1.871       .  S
C954        O964   1.272       .  A
C954        C977   1.499       .  S
O955        C961   1.286       .  A
O956        C961   1.275       .  A
C957       C1159   1.506       .  S
O958        C960   1.259       .  A
O959       Ni970   1.941       .  S
C960        O966   1.272       .  A
C960        C991   1.481       .  S
C961       C1005   1.490       .  S
H962        O963   0.965       .  S
O963       Ni971   1.918       .  S
O963       Ni965   1.897       .  S
O963       Ni970   1.891       .  S
O964       Ni965   1.918       .  S
Ni965       O969   1.949       .  S
Ni965       O967   1.942       .  S
O966       Ni971   1.936       .  S
C968        O969   1.268       .  A
C968       C1145   1.480       .  S
C973        C974   1.407       .  A
C973        C978   1.406       .  A
C973        H980   1.084       .  S
C974        C975   1.411       .  A
C975        C976   1.403       .  A
C975        N982   1.430       .  S
C976        C977   1.411       .  A
C976        H981   1.083       .  S
C977        C978   1.416       .  A
C978        N979   1.428       .  S
N979        O983   1.262       .  A
N979        O984   1.262       .  A
N982        O986   1.262       .  A
N982        O985   1.262       .  A
C987        C988   1.413       .  A
C987        C992   1.399       .  A
C987        H994   1.084       .  S
C988        C989   1.408       .  A
C989        C990   1.392       .  A
C989        N996   1.427       .  S
C990        C991   1.408       .  A
C990        H995   1.084       .  S
C991        C992   1.408       .  A
C992        N993   1.429       .  S
N993        O997   1.262       .  A
N993        O998   1.262       .  A
N996       O1000   1.262       .  A
N996        O999   1.261       .  A
C1001      C1410   1.399       .  A
C1001      C1006   1.401       .  A
C1001      H1008   1.083   1_545  S
C1002      C1409   1.401       .  A
C1002      C1411   1.410       .  A
C1003      C1410   1.412       .  A
C1003      C1004   1.406       .  A
C1003      N1418   1.431       .  S
C1004      C1005   1.402       .  A
C1004      H1009   1.080       .  S
C1005      C1006   1.419       .  A
C1006      N1007   1.430       .  S
N1007      O1011   1.262       .  A
N1007      O1012   1.262       .  A
N1010      C1411   1.431       .  S
N1010      O1014   1.262       .  A
N1010      O1013   1.262       .  A
C1015      C1016   1.408       .  A
C1015      C1020   1.413       .  A
C1015      H1022   1.084       .  S
C1016      C1017   1.417       .  A
C1017      C1018   1.405       .  A
C1017      N1024   1.430       .  S
C1018      C1019   1.401       .  A
C1018      H1023   1.084       .  S
C1019      C1020   1.412       .  A
C1020      N1021   1.428       .  S
N1021      O1025   1.262       .  A
N1021      O1026   1.262       .  A
N1024      O1028   1.262       .  A
N1024      O1027   1.262       .  A
C1029      C1030   1.408       .  A
C1029      C1034   1.404       .  A
C1029      H1036   1.083       .  S
C1030      C1031   1.418       .  A
C1031      C1032   1.398       .  A
C1031      N1038   1.430       .  S
C1032      C1033   1.403       .  A
C1032      H1037   1.084       .  S
C1033      C1034   1.411       .  A
C1034      N1035   1.428       .  S
N1035      O1039   1.262       .  A
N1035      O1040   1.262       .  A
N1038      O1042   1.262       .  A
N1038      O1041   1.262       .  A
C1043      C1048   1.408       .  A
C1045      C1046   1.408       .  A
C1045      N1052   1.429   1_655  S
C1046      C1047   1.401       .  A
C1046      H1051   1.084       .  S
C1047      C1048   1.416       .  A
C1048      N1049   1.425       .  S
N1049      O1053   1.262       .  A
N1049      O1054   1.262       .  A
N1052      O1056   1.262       .  A
C1057      C1466   1.410       .  A
C1057      C1062   1.421       .  A
C1057      H1064   1.083       .  S
C1058      C1465   1.407       .  A
C1058      C1059   1.423       .  A
C1059      C1060   1.422   1_545  A
C1059      N1066   1.427       .  S
C1060      C1469   1.410       .  A
C1060      H1065   1.081       .  S
C1061      C1468   1.409       .  A
C1061      C1062   1.424       .  A
C1062      N1063   1.428       .  S
N1063      O1067   1.262       .  A
N1063      O1068   1.262       .  A
N1066      O1070   1.262       .  A
N1066      O1069   1.262       .  A
C1071      C1072   1.412       .  A
C1071      C1484   1.420   1_544  A
C1071      H1078   1.084       .  S
C1072      C1073   1.412   1_554  A
C1073      C1074   1.401       .  A
C1073      N1080   1.429   1_556  S
C1074      C1483   1.405   1_545  A
C1074      H1079   1.083       .  S
C1075      C1482   1.409       .  A
C1075      C1076   1.410   1_556  A
C1076      C1479   1.405       .  A
C1076      N1077   1.429       .  S
N1077      O1081   1.262       .  A
N1077      O1082   1.262       .  A
N1080      O1084   1.262       .  A
N1080      O1083   1.262   1_554  A
C1085      C1086   1.401       .  A
C1085      C1090   1.397   1_554  A
C1085      H1092   1.084       .  S
C1086      C1087   1.416       .  A
C1087      C1088   1.404   1_554  A
C1087      N1094   1.429       .  S
C1088      C1089   1.405       .  A
C1088      H1093   1.084       .  S
C1089      C1090   1.419       .  A
C1090      N1091   1.429       .  S
N1091      O1095   1.261   1_556  A
N1091      O1096   1.262       .  A
N1094      O1098   1.262   1_554  A
N1094      O1097   1.262       .  A
C1099      C1100   1.398       .  A
C1099      C1104   1.397       .  A
C1099      H1106   1.085       .  S
C1100      C1101   1.409       .  A
C1101      C1102   1.387       .  A
C1101      N1108   1.430       .  S
C1102      C1103   1.401       .  A
C1102      H1107   1.084       .  S
C1103      C1104   1.414       .  A
C1104      N1105   1.429       .  S
N1105      O1109   1.262       .  A
N1105      O1110   1.262       .  A
N1108      O1112   1.262       .  A
N1108      O1111   1.262       .  A
C1113      C1114   1.406       .  A
C1113      C1118   1.411       .  A
C1113      H1120   1.084       .  S
C1114      C1115   1.417       .  A
C1115      C1116   1.397       .  A
C1115      N1122   1.430       .  S
C1116      C1117   1.402       .  A
C1116      H1121   1.084       .  S
C1117      C1118   1.417       .  A
C1118      N1119   1.428       .  S
N1119      O1123   1.262       .  A
N1119      O1124   1.262       .  A
N1122      O1126   1.262       .  A
N1122      O1125   1.262       .  A
C1127      C1128   1.411       .  A
C1127      C1132   1.390       .  A
C1127      H1134   1.084       .  S
C1128      C1129   1.406       .  A
C1129      C1130   1.392       .  A
C1129      N1544   1.430       .  S
N1133      O1138   1.262       .  A
N1136      C1537   1.429       .  S
N1136      O1140   1.262       .  A
N1136      O1139   1.262       .  A
C1141      C1142   1.412       .  A
C1141      C1146   1.396       .  A
C1141      H1148   1.083   1_455  S
C1143      C1144   1.401       .  A
C1143      N1150   1.428       .  S
C1144      C1145   1.406       .  A
C1144      H1149   1.085       .  S
C1146      N1147   1.428       .  S
N1147      O1151   1.261       .  A
N1150      O1154   1.262       .  A
N1150      O1153   1.262       .  A
C1155      C1156   1.395   1_556  A
C1155      H1162   1.085       .  S
C1156      C1157   1.416       .  A
C1157      N1164   1.427       .  S
C1158      C1159   1.406       .  A
C1158      H1163   1.083   1_556  S
C1159      C1160   1.417       .  A
C1160      N1161   1.421       .  S
N1161      O1165   1.262       .  A
N1161      O1166   1.261       .  A
N1164      O1168   1.261       .  A
N1164      O1167   1.262   1_655  A
C1169      C1170   1.398       .  A
C1169      C1174   1.396       .  A
C1169      H1176   1.085       .  S
C1170      C1171   1.412       .  A
C1171      C1172   1.408       .  A
C1171      N1178   1.429       .  S
C1172      C1173   1.406       .  A
C1172      H1177   1.084       .  S
C1173      C1174   1.414       .  A
C1174      N1175   1.428       .  S
N1175      O1179   1.262       .  A
N1175      O1180   1.262       .  A
N1178      O1182   1.262       .  A
N1178      O1181   1.262       .  A
C1183      C1592   1.406       .  A
C1183      C1188   1.409       .  A
C1183      H1190   1.084       .  S
C1184      C1591   1.403       .  A
C1184      C1593   1.420   1_545  A
C1185      C1592   1.420       .  A
C1185      C1186   1.404       .  A
C1185      N1600   1.428       .  S
C1186      C1187   1.404       .  A
C1186      H1191   1.084       .  S
C1187      C1188   1.423       .  A
C1188      N1189   1.429       .  S
N1189      O1193   1.262       .  A
N1189      O1194   1.262       .  A
N1192      C1593   1.428       .  S
N1192      O1604   1.262       .  A
N1192      O1195   1.261       .  A
O1196      N1600   1.262       .  A
C1197      C1198   1.406       .  A
C1197      C1202   1.405       .  A
C1197      H1204   1.084       .  S
C1198      C1199   1.422       .  A
C1199      C1200   1.410       .  A
C1199      N1206   1.427       .  S
C1200      C1201   1.404       .  A
C1200      H1205   1.084       .  S
C1201      C1202   1.424       .  A
C1202      N1203   1.430       .  S
N1203      O1207   1.262       .  A
N1203      O1208   1.262       .  A
N1206      O1210   1.262       .  A
N1206      O1209   1.262       .  A
C1211      C1212   1.404       .  A
C1211      C1216   1.406       .  A
C1212      C1213   1.406       .  A
C1213      C1214   1.400       .  A
C1213      N1220   1.429       .  S
C1214      C1215   1.411       .  A
C1214      H1219   1.084       .  S
C1215      C1216   1.415       .  A
C1216      N1217   1.427       .  S
N1217      O1221   1.262       .  A
N1217      O1222   1.262       .  A
N1220      O1224   1.262       .  A
N1220      O1223   1.262       .  A
O1225     Ni1231   1.937       .  S
O1225      C1246   1.278       .  A
O1226     Ni1249   1.927       .  S
O1226      C1235   1.276       .  A
O1227     Ni1231   1.875       .  S
O1227     Ni1249   1.881       .  S
O1227     Ni1243   1.905       .  S
O1227      H1250   0.965       .  S
C1228      O1245   1.269       .  A
C1228      O1237   1.270       .  A
C1228      C1578   1.488       .  S
O1229     Ni1248   1.905       .  S
O1229      C1235   1.271       .  A
O1230     Ni1248   1.899       .  S
O1230      C1232   1.273       .  A
Ni1231     O1234   1.931       .  S
C1232      O1242   1.298       .  A
C1232      C1609   1.504       .  S
O1233     Ni1249   1.962       .  S
O1233      C1239   1.294       .  A
O1234      C1239   1.285       .  A
C1235      C1550   1.494   1_655  S
O1236      C1238   1.267       .  A
O1237     Ni1248   1.929       .  S
C1238      C1620   1.478       .  S
C1239      C1592   1.505       .  S
H1240      O1241   0.968       .  S
O1241     Ni1249   1.947       .  S
O1241     Ni1243   1.901       .  S
O1241     Ni1248   1.898       .  S
O1242     Ni1243   1.993       .  S
Ni1243     O1247   1.914       .  S
Ni1243     O1245   1.928       .  S
O1244     Ni1249   1.928       .  S
C1246      O1247   1.281       .  A
C1246      C1564   1.490       .  S
O1251     Ni1257   1.944       .  S
O1251      C1272   1.278       .  A
O1252     Ni1275   1.914       .  S
O1252      C1261   1.279       .  A
O1253     Ni1257   1.910       .  S
O1253     Ni1275   1.904       .  S
O1253     Ni1269   1.937       .  S
O1253      H1276   0.967       .  S
C1254      O1271   1.287       .  A
C1254      O1263   1.275       .  A
C1254      C1539   1.474       .  S
O1255     Ni1274   1.887       .  S
O1255      C1261   1.269       .  A
O1256     Ni1274   1.916       .  S
O1256      C1258   1.268       .  A
Ni1257     O1260   1.934       .  S
Ni1257     O1262   1.936       .  S
C1258      O1268   1.281       .  A
C1258      C1595   1.505       .  S
O1259     Ni1275   1.923       .  S
O1259      C1265   1.275       .  A
O1260      C1265   1.274       .  A
C1261      C1508   1.454       .  S
O1262      C1264   1.284       .  A
O1263     Ni1274   1.882       .  S
C1264      O1270   1.285       .  A
C1264      C1581   1.495       .  S
C1265      C1522   1.490       .  S
H1266      O1267   0.957       .  S
O1267     Ni1275   1.894       .  S
O1267     Ni1269   1.858       .  S
O1267     Ni1274   1.862       .  S
O1268     Ni1269   1.947       .  S
Ni1269     O1273   1.895       .  S
Ni1269     O1271   1.946       .  S
O1270     Ni1275   1.957       .  S
C1272      O1273   1.272       .  A
C1272      C1494   1.491       .  S
O1277     Ni1283   1.988       .  S
O1277      C1298   1.294       .  A
O1278     Ni1301   1.964       .  S
O1278      C1287   1.268       .  A
O1279     Ni1283   1.893       .  S
O1279     Ni1301   1.915       .  S
O1279     Ni1295   1.910       .  S
O1279      H1302   0.966       .  S
C1280      O1297   1.279       .  A
C1280      O1289   1.273       .  A
C1280      C1536   1.464       .  S
O1281     Ni1300   1.882       .  S
O1281      C1287   1.254       .  A
O1282     Ni1300   1.891       .  S
O1282      C1284   1.266       .  A
Ni1283     O1286   1.951       .  S
Ni1283     O1288   1.942       .  S
C1284      O1294   1.278       .  A
C1284      C1623   1.493       .  S
O1285     Ni1301   1.928       .  S
O1285      C1291   1.288       .  A
O1286      C1291   1.288       .  A
C1287      C1480   1.497       .  S
O1288      C1290   1.278       .  A
C1290      O1296   1.269       .  A
C1290      C1606   1.504       .  S
C1291      C1525   1.495       .  S
H1292      O1293   0.967       .  S
O1293     Ni1301   1.919       .  S
O1293     Ni1295   1.911       .  S
O1293     Ni1300   1.906       .  S
O1294     Ni1295   1.957       .  S
Ni1295     O1299   1.938       .  S
O1296     Ni1301   1.920       .  S
C1298      O1299   1.279       .  A
C1298      C1466   1.534       .  S
O1303     Ni1309   1.925       .  S
O1303      C1324   1.278       .  A
O1304     Ni1327   1.893       .  S
O1304      C1313   1.268       .  A
O1305     Ni1309   1.872       .  S
O1305     Ni1327   1.870       .  S
O1305     Ni1321   1.903       .  S
O1305      H1328   0.965       .  S
C1306      O1323   1.277       .  A
C1306      O1315   1.266       .  A
C1306      C1424   1.490       .  S
O1307     Ni1326   1.910       .  S
O1307      C1313   1.267       .  A
O1308     Ni1326   1.900       .  S
O1308      C1310   1.277       .  A
Ni1309     O1312   1.923       .  S
Ni1309     O1314   1.918       .  S
C1310      O1320   1.291       .  A
C1310      C1438   1.489       .  S
O1311     Ni1327   1.938       .  S
O1311      C1317   1.284       .  A
O1312      C1317   1.281       .  A
C1313      C1511   1.464       .  S
O1314      C1316   1.270       .  A
O1315     Ni1326   1.919       .  S
C1316      O1322   1.275       .  A
C1316      C1455   1.489       .  S
C1317      C1410   1.484   1_565  S
H1318      O1319   0.966       .  S
O1319     Ni1327   1.955       .  S
O1319     Ni1321   1.911       .  S
O1319     Ni1326   1.910       .  S
O1320     Ni1321   1.965       .  S
Ni1321     O1325   1.915       .  S
Ni1321     O1323   1.943       .  S
O1322     Ni1327   1.942       .  S
C1324      O1325   1.282       .  A
C1324      C1497   1.491       .  S
O1329     Ni1335   1.960       .  S
O1329      C1350   1.281       .  A
O1330     Ni1353   1.966       .  S
O1330      C1339   1.271       .  A
O1331     Ni1335   1.879       .  S
O1331     Ni1353   1.913       .  S
O1331     Ni1347   1.912       .  S
O1331      H1354   0.965       .  S
C1332      O1349   1.276       .  A
C1332      O1341   1.276       .  A
C1332      C1396   1.473       .  S
O1333     Ni1352   1.897       .  S
O1333      C1339   1.260       .  A
O1334     Ni1352   1.902       .  S
O1334      C1336   1.266       .  A
Ni1335     O1338   1.938       .  S
Ni1335     O1340   1.901       .  S
C1336      O1346   1.284       .  A
C1336      C1452   1.497       .  S
O1337     Ni1353   1.942       .  S
O1337      C1343   1.288       .  A
O1338      C1343   1.286       .  A
C1339      C1483   1.501       .  S
O1340      C1342   1.269       .  A
C1342      O1348   1.273       .  A
C1342      C1441   1.480       .  S
C1343      C1382   1.500       .  S
H1344      O1345   0.969       .  S
O1345     Ni1353   1.921       .  S
O1345     Ni1347   1.909       .  S
O1345     Ni1352   1.902       .  S
O1346     Ni1347   1.968       .  S
Ni1347     O1351   1.957       .  S
O1348     Ni1353   1.926       .  S
C1350      O1351   1.287       .  A
C1350      C1469   1.533       .  S
O1355     Ni1361   1.884       .  S
O1355      C1376   1.250       .  A
O1356     Ni1379   1.914       .  S
O1356      C1365   1.276       .  A
O1357     Ni1361   1.907       .  S
O1357     Ni1379   1.896       .  S
O1357     Ni1373   1.936       .  S
O1357      H1380   0.962       .  S
C1358      O1375   1.284       .  A
C1358      O1367   1.286       .  A
C1358      C1427   1.491       .  S
O1359     Ni1378   1.965       .  S
O1359      C1365   1.288       .  A
O1360     Ni1378   1.931       .  S
O1360      C1362   1.275       .  A
Ni1361     O1366   1.869       .  S
C1362      O1372   1.275       .  A
C1362      C1385   1.503       .  S
O1363      C1369   1.286       .  A
O1364      C1369   1.277       .  A
C1365      C1567   1.506       .  S
O1366      C1368   1.259       .  A
O1367     Ni1378   1.947       .  S
C1368      O1374   1.270       .  A
C1368      C1399   1.478       .  S
C1369      C1413   1.492       .  S
H1370      O1371   0.966       .  S
O1371     Ni1379   1.923       .  S
O1371     Ni1373   1.896       .  S
O1371     Ni1378   1.889       .  S
O1372     Ni1373   1.924       .  S
Ni1373     O1377   1.944       .  S
Ni1373     O1375   1.931       .  S
O1374     Ni1379   1.929       .  S
C1376      O1377   1.266       .  A
C1376      C1553   1.479       .  S
C1381      C1382   1.408       .  A
C1381      C1386   1.408       .  A
C1381      H1388   1.084       .  S
C1382      C1383   1.415       .  A
C1383      C1384   1.404       .  A
C1383      N1390   1.429       .  S
C1384      C1385   1.409       .  A
C1384      H1389   1.081       .  S
C1385      C1386   1.417       .  A
C1386      N1387   1.428       .  S
N1387      O1391   1.262       .  A
N1387      O1392   1.262       .  A
N1390      O1394   1.262       .  A
N1390      O1393   1.262       .  A
C1395      C1396   1.409       .  A
C1395      C1400   1.397       .  A
C1395      H1402   1.084       .  S
C1396      C1397   1.409       .  A
C1397      C1398   1.389       .  A
C1397      N1404   1.429       .  S
C1398      C1399   1.407       .  A
C1398      H1403   1.084       .  S
C1399      C1400   1.409       .  A
C1400      N1401   1.429       .  S
N1401      O1405   1.262       .  A
N1401      O1406   1.262       .  A
N1404      O1408   1.262       .  A
N1404      O1407   1.262       .  A
C1409      C1414   1.402       .  A
C1409      H1416   1.083       .  S
C1411      C1412   1.406       .  A
C1412      C1413   1.402       .  A
C1412      H1417   1.078       .  S
C1413      C1414   1.418       .  A
C1414      N1415   1.430       .  S
N1415      O1419   1.262       .  A
N1415      O1420   1.262       .  A
N1418      O1422   1.262       .  A
N1418      O1421   1.262       .  A
C1423      C1424   1.409       .  A
C1423      C1428   1.413       .  A
C1423      H1430   1.084       .  S
C1424      C1425   1.415       .  A
C1425      C1426   1.403       .  A
C1425      N1432   1.429       .  S
C1426      C1427   1.402       .  A
C1426      H1431   1.084       .  S
C1427      C1428   1.412       .  A
C1428      N1429   1.428       .  S
N1429      O1433   1.261       .  A
N1429      O1434   1.262       .  A
N1432      O1436   1.262       .  A
N1432      O1435   1.262       .  A
C1437      C1438   1.407       .  A
C1437      C1442   1.402       .  A
C1437      H1444   1.083       .  S
C1438      C1439   1.419       .  A
C1439      C1440   1.396       .  A
C1439      N1446   1.430       .  S
C1440      C1441   1.402       .  A
C1440      H1445   1.085       .  S
C1441      C1442   1.411       .  A
C1442      N1443   1.428       .  S
N1443      O1447   1.262       .  A
N1443      O1448   1.262       .  A
N1446      O1450   1.262       .  A
N1446      O1449   1.262       .  A
C1451      C1456   1.408       .  A
C1453      C1454   1.406       .  A
C1453      N1460   1.429   1_655  S
C1454      C1455   1.399       .  A
C1454      H1459   1.084       .  S
C1455      C1456   1.415       .  A
C1456      N1457   1.426       .  S
N1457      O1461   1.261       .  A
N1457      O1462   1.262       .  A
N1460      O1464   1.262       .  A
C1465      C1470   1.419   1_545  A
C1465      H1472   1.084       .  S
C1466      C1467   1.426       .  A
C1467      C1468   1.422       .  A
C1467      N1474   1.428       .  S
C1468      H1473   1.083       .  S
C1469      C1470   1.426       .  A
C1470      N1471   1.428       .  S
N1471      O1475   1.262       .  A
N1471      O1476   1.262       .  A
N1474      O1478   1.262       .  A
N1474      O1477   1.262       .  A
C1479      C1480   1.408       .  A
C1479      H1486   1.082       .  S
C1480      C1481   1.412       .  A
C1481      C1482   1.414   1_554  A
C1481      N1488   1.427       .  S
C1482      H1487   1.084       .  S
C1483      C1484   1.415       .  A
C1484      N1485   1.428       .  S
N1485      O1489   1.262       .  A
N1485      O1490   1.262   1_556  A
N1488      O1492   1.262   1_554  A
N1488      O1491   1.262       .  A
C1493      C1494   1.402       .  A
C1493      C1498   1.397   1_554  A
C1493      H1500   1.084       .  S
C1494      C1495   1.419       .  A
C1495      C1496   1.406   1_554  A
C1495      N1502   1.429       .  S
C1496      C1497   1.404       .  A
C1496      H1501   1.084       .  S
C1497      C1498   1.418       .  A
C1498      N1499   1.429       .  S
N1499      O1503   1.261   1_556  A
N1499      O1504   1.262       .  A
N1502      O1506   1.262   1_554  A
N1502      O1505   1.262       .  A
C1507      C1508   1.400       .  A
C1507      C1512   1.398       .  A
C1507      H1514   1.084       .  S
C1508      C1509   1.409       .  A
C1509      C1510   1.391       .  A
C1509      N1516   1.430       .  S
C1510      C1511   1.400       .  A
C1510      H1515   1.084       .  S
C1511      C1512   1.410       .  A
C1512      N1513   1.429       .  S
N1513      O1517   1.262       .  A
N1513      O1518   1.261       .  A
N1516      O1520   1.262       .  A
N1516      O1519   1.262       .  A
C1521      C1522   1.407       .  A
C1521      C1526   1.411       .  A
C1521      H1528   1.084       .  S
C1522      C1523   1.413       .  A
C1523      C1524   1.396       .  A
C1523      N1530   1.429       .  S
C1524      C1525   1.404       .  A
C1524      H1529   1.084       .  S
C1525      C1526   1.417       .  A
C1526      N1527   1.428       .  S
N1527      O1531   1.262       .  A
N1527      O1532   1.262       .  A
N1530      O1534   1.262       .  A
N1530      O1533   1.262       .  A
C1535      C1536   1.408       .  A
C1535      C1540   1.389       .  A
C1535      H1542   1.084       .  S
C1536      C1537   1.403       .  A
C1537      C1538   1.390       .  A
N1541      O1546   1.262       .  A
N1544      O1548   1.262       .  A
N1544      O1547   1.262       .  A
C1549      C1550   1.413       .  A
C1549      C1554   1.396       .  A
C1549      H1556   1.083   1_455  S
C1551      C1552   1.402       .  A
C1551      N1558   1.427       .  S
C1552      C1553   1.407       .  A
C1552      H1557   1.084       .  S
C1554      N1555   1.428       .  S
N1555      O1559   1.262       .  A
N1558      O1562   1.262       .  A
N1558      O1561   1.262       .  A
C1563      C1564   1.395   1_556  A
C1563      H1570   1.085       .  S
C1564      C1565   1.418       .  A
C1565      N1572   1.427       .  S
C1566      C1567   1.407       .  A
C1566      H1571   1.083   1_556  S
C1567      C1568   1.417       .  A
C1568      N1569   1.422       .  S
N1569      O1573   1.262       .  A
N1569      O1574   1.261       .  A
N1572      O1576   1.262       .  A
N1572      O1575   1.262   1_655  A
C1577      C1578   1.401       .  A
C1577      C1582   1.398       .  A
C1577      H1584   1.084       .  S
C1578      C1579   1.414       .  A
C1579      C1580   1.413       .  A
C1579      N1586   1.428       .  S
C1580      C1581   1.409       .  A
C1580      H1585   1.083       .  S
C1581      C1582   1.415       .  A
C1582      N1583   1.429       .  S
N1583      O1587   1.262       .  A
N1583      O1588   1.262       .  A
N1586      O1590   1.262       .  A
N1586      O1589   1.262       .  A
C1591      C1596   1.409   1_545  A
C1591      H1598   1.084       .  S
C1593      C1594   1.404       .  A
C1594      C1595   1.403       .  A
C1594      H1599   1.084       .  S
C1595      C1596   1.425       .  A
C1596      N1597   1.429       .  S
N1597      O1601   1.262       .  A
N1597      O1602   1.262       .  A
N1600      O1603   1.262       .  A
C1605      C1606   1.402       .  A
C1605      C1610   1.407       .  A
C1605      H1612   1.084       .  S
C1606      C1607   1.423       .  A
C1607      C1608   1.407       .  A
C1607      N1614   1.426       .  S
C1608      C1609   1.400       .  A
C1608      H1613   1.084       .  S
C1609      C1610   1.424       .  A
C1610      N1611   1.429       .  S
N1611      O1615   1.262       .  A
N1611      O1616   1.262       .  A
N1614      O1618   1.262       .  A
N1614      O1617   1.262       .  A
C1619      C1620   1.405       .  A
C1619      C1624   1.406       .  A
C1620      C1621   1.405       .  A
C1621      C1622   1.401       .  A
C1621      N1628   1.429       .  S
C1622      C1623   1.411       .  A
C1622      H1627   1.084       .  S
C1623      C1624   1.412       .  A
C1624      N1625   1.428       .  S
N1625      O1629   1.262       .  A
N1625      O1630   1.262       .  A
N1628      O1632   1.262       .  A
N1628      O1631   1.262       .  A
