geometry optimzed in LAMMPS
_audit_creation_date              2020-11-30 
_audit_creation_method            'lammps2cif' 
_symmetry_space_group_name_H-M    'P1' 
_symmetry_Int_Tables_number       1 
_symmetry_cell_setting            triclinic 
loop_ 
_symmetry_equiv_pos_as_xyz 
  x,y,z 
_cell_length_a                    26.69758955 
_cell_length_b                    26.727114881040066 
_cell_length_c                    41.22025923408061 
_cell_angle_alpha                 89.84341921529122 
_cell_angle_beta                  89.75415373415092 
_cell_angle_gamma                 90.88560267323575 
loop_ 
_atom_site_label 
_atom_site_type_symbol 
_atom_site_fract_x 
_atom_site_fract_y 
_atom_site_fract_z 
_atom_site_charge 
C1          C  0.00463662  0.84539325  0.42901993     0.43300
N2          N  0.02211503  0.89189569  0.46970786     0.02100
C3          C  0.86768642  0.04977582  0.05591148    -0.05700
H4          H  0.87522975  0.09452039  0.43673480     0.07600
C5          C  0.06673927  0.12625412  0.44567639    -0.06100
Co6        Co  0.93265147  0.94022802  0.49855321     0.74200
N7          N  0.90834662  0.03404953  0.46337025    -0.25300
Co8        Co  0.94747093  0.06939000  0.00059328     0.74100
C9          C  0.02571434  0.15123332  0.42947484     0.43400
N10         N  0.11355474  0.01064639  0.47183544     0.01800
N11         N  0.99553170  0.10393421  0.46695770     0.01900
N12         N  0.85830384  0.96579798  0.05153673    -0.46100
H13         H  0.92064773  0.86472134  0.43193275     0.07600
N14         N  0.90340606  0.98488394  0.46164919     0.02200
N15         N  0.98857475  0.10397026  0.03764956     0.03000
C16         C  0.01346527  0.15171574  0.07618361     0.43500
N17         N  0.10810732  0.96153408  0.47335220    -0.24700
C18         C  0.93847988  0.87016781  0.05842202    -0.05600
N19         N  0.04201057  0.86105768  0.44843166    -0.45800
N20         N  0.97242777  0.13647744  0.05950264    -0.46000
C21         C  0.97790554  0.84659768  0.07689562     0.43300
N22         N  0.89387009  0.98313739  0.03195403     0.02100
N23         N  0.10016852  0.96418161  0.04377650    -0.24700
N24         N  0.97348962  0.89742349  0.46570058    -0.25200
N25         N  0.10538874  0.01330655  0.04256534     0.01800
H26         H  0.13198846  0.90821597  0.07524082     0.07700
H27         H  0.09574920  0.13145649  0.06814401     0.07700
N28         N  0.89989238  0.03221153  0.03362366    -0.25300
N29         N  0.04443399  0.09782310  0.46850403    -0.24900
N30         N  0.01135728  0.89309842  0.04009408     0.02100
C31         C  0.85727627  0.01288717  0.42337000     0.43500
C32         C  0.13785927  0.94074727  0.45114582    -0.06100
N33         N  0.03760045  0.09847480  0.03865899    -0.24900
H34         H  0.10670538  0.13087090  0.44212896     0.07700
N35         N  0.87224980  0.97056407  0.43832287    -0.46100
H36         H  0.14226679  0.90106640  0.44720811     0.07700
C37         C  0.14921591  0.99222556  0.08358080     0.43400
C38         C  0.95874423  0.86926714  0.44036914    -0.05600
Co39       Co  0.06098905  0.92681935  0.50705513     0.73800
N40         N  0.14682289  0.02513447  0.44954848    -0.45800
C41         C  0.84038884  0.00530468  0.06774944     0.43600
N42         N  0.02229540  0.86184589  0.06403484    -0.45800
Co43       Co  0.07596635  0.05551171  0.00521385     0.73900
C44         C  0.05645489  0.12686384  0.06240639    -0.06100
C45         C  0.88074594  0.05484168  0.44009593    -0.05700
N46         N  0.96260524  0.89794697  0.03610934    -0.25200
N47         N  0.98267004  0.13601729  0.44402547    -0.46000
H48         H  0.86172588  0.08879893  0.06135883     0.07700
C49         C  0.12692755  0.94712967  0.06899579    -0.06100
Cl50       Cl  0.00421558  0.99800485  0.00287181    -0.49100
C51         C  0.16306765  0.98277039  0.43533876     0.43400
H52         H  0.89828392  0.86542756  0.06050923     0.07600
N53         N  0.13436514  0.03137866  0.06573632    -0.45800
C54         C  0.97486176  0.54186647  0.27164555     0.03100
C55         C  0.98375118  0.54352893  0.23779463     0.03000
C56         C  0.98443392  0.49822046  0.22037236    -0.17500
C57         C  0.97657340  0.45177571  0.23592619     0.03100
C58         C  0.97070202  0.45053931  0.26997809     0.03000
C59         C  0.96904197  0.49559107  0.28726465    -0.17500
H60         H  0.96224249  0.49465889  0.31322777     0.05100
H61         H  0.99015050  0.49914543  0.19437554     0.05100
C62         C  0.55180653  0.99813877  0.26831548     0.03100
C63         C  0.54995443  0.99229880  0.23418126     0.03000
C64         C  0.50316923  0.98586383  0.21905632    -0.17500
C65         C  0.45803154  0.98848388  0.23663133     0.03100
C66         C  0.45968617  0.99792567  0.27031096     0.03000
C67         C  0.50650430  0.00244389  0.28568300    -0.17500
H68         H  0.50756678  0.01169535  0.31118996     0.05100
H69         H  0.50199975  0.97707689  0.19345221     0.05100
C70         C  0.35277680  0.98327908  0.17223705     0.19500
C71         C  0.34009905  0.01507480  0.14658318    -0.18600
C72         C  0.29557308  0.00761859  0.12958809    -0.10900
C73         C  0.26268242  0.96783470  0.13776038     0.21700
C74         C  0.27596558  0.93500578  0.16276366    -0.20200
C75         C  0.32048465  0.94277239  0.18005056    -0.11100
C76         C  0.21572483  0.95911860  0.11930793    -0.15200
C77         C  0.19008490  0.99756913  0.10713186    -0.29100
C78         C  0.40093352  0.99253039  0.18920932    -0.03300
C79         C  0.40940723  0.97851134  0.22004450    -0.39900
H80         H  0.36473846  0.04592445  0.13968112     0.12900
H81         H  0.28753887  0.03249768  0.10957264     0.12500
H82         H  0.25174238  0.90352838  0.16901942     0.12000
H83         H  0.32991689  0.91646389  0.19897186     0.12200
H84         H  0.20293961  0.92092638  0.11509980     0.14900
H85         H  0.20178144  0.03563711  0.11279951     0.13700
H86         H  0.42952644  0.01417146  0.17632726     0.11400
H87         H  0.37943111  0.96083578  0.23399358     0.13400
C88         C  0.36095654  0.99986721  0.33965087     0.19500
C89         C  0.35191224  0.96852278  0.36641745    -0.18600
C90         C  0.30918893  0.97419434  0.38557154    -0.10900
C91         C  0.27446130  0.01169680  0.37850653     0.21700
C92         C  0.28419292  0.04427420  0.35240227    -0.20200
C93         C  0.32690282  0.03829404  0.33296257    -0.11100
C94         C  0.22890776  0.01799818  0.39882578    -0.15200
C95         C  0.20534965  0.97850494  0.41256793    -0.29100
C96         C  0.40730461  0.99225454  0.32031150    -0.03300
C97         C  0.41272482  0.00640371  0.28912364    -0.39900
H98         H  0.37797143  0.93930225  0.37248858     0.12900
H99         H  0.30389440  0.94962953  0.40626531     0.12500
H100        H  0.25848624  0.07404917  0.34688476     0.12000
H101        H  0.33349936  0.06431083  0.31319560     0.12200
H102        H  0.21428207  0.05534769  0.40222269     0.14900
H103        H  0.21790607  0.94090621  0.40737545     0.13700
H104        H  0.43724373  0.97169658  0.33180041     0.11400
H105        H  0.38145111  0.02306491  0.27657478     0.13400
C106        C  0.64634224  0.01716784  0.16558402     0.19500
C107        C  0.64538711  0.01109111  0.13182568    -0.18600
C108        C  0.68930696  0.01675822  0.11351514    -0.10900
C109        C  0.73472167  0.03001250  0.12861193     0.21700
C110        C  0.73542472  0.03759850  0.16224296    -0.20200
C111        C  0.69172042  0.03063506  0.18069211    -0.11100
C112        C  0.78155470  0.03595157  0.10949723    -0.15200
C113        C  0.79396727  0.00215794  0.08702771    -0.29100
C114        C  0.59896781  0.01248933  0.18422187    -0.03300
C115        C  0.59665388  0.99232919  0.21416941    -0.39900
H116        H  0.61065879  0.00152805  0.11966874     0.12900
H117        H  0.68767639  0.01154634  0.08749105     0.12500
H118        H  0.76996669  0.04818886  0.17426687     0.12000
H119        H  0.69317912  0.03693875  0.20661312     0.12200
H120        H  0.80752067  0.06625456  0.11538987     0.14900
H121        H  0.77003011  0.96938342  0.08346330     0.13700
H122        H  0.56534824  0.02659616  0.17289535     0.11400
H123        H  0.63052582  0.97727918  0.22456741     0.13400
C124        C  0.65621742  0.98791278  0.33283954     0.19500
C125        C  0.65969409  0.00417754  0.36503890    -0.18600
C126        C  0.70534321  0.00261549  0.38141580    -0.10900
C127        C  0.74805500  0.98333308  0.36613578     0.21700
C128        C  0.74445535  0.96620177  0.33408643    -0.20200
C129        C  0.69902929  0.96915360  0.31734246    -0.11100
C130        C  0.79579628  0.97918287  0.38404988    -0.15200
C131        C  0.81286040  0.01685620  0.40257124    -0.29100
C132        C  0.60676710  0.98743654  0.31675457    -0.03300
C133        C  0.60086155  0.00156966  0.28565406    -0.39900
H134        H  0.62697814  0.01812504  0.37751600     0.12900
H135        H  0.70695124  0.01516364  0.40635354     0.12500
H136        H  0.77682832  0.95077172  0.32201652     0.12000
H137        H  0.69693843  0.95533503  0.29270267     0.12200
H138        H  0.81739316  0.94525154  0.38165473     0.14900
H139        H  0.79318498  0.05214927  0.40276684     0.13700
H140        H  0.57483958  0.97499397  0.33117807     0.11400
H141        H  0.63369876  0.01496325  0.27248404     0.13400
C142        C  0.99319692  0.35115534  0.16943753     0.19500
C143        C  0.03378780  0.33545918  0.15059432    -0.18600
C144        C  0.02935070  0.29331608  0.13080258    -0.10900
C145        C  0.98393415  0.26585879  0.12935263     0.21700
C146        C  0.94290947  0.28226324  0.14758203    -0.20200
C147        C  0.94743383  0.32436834  0.16753649    -0.11100
C148        C  0.97790027  0.22147880  0.10795395    -0.15200
C149        C  0.01676392  0.19278469  0.09979309    -0.29100
C150        C  0.99924434  0.39690045  0.18951451    -0.03300
C151        C  0.97202624  0.40510864  0.21643871    -0.39900
H152        H  0.06910311  0.35596929  0.15113763     0.12900
H153        H  0.06127468  0.28320494  0.11611659     0.12500
H154        H  0.90728092  0.26241373  0.14639364     0.12000
H155        H  0.91471915  0.33640382  0.18078271     0.12200
H156        H  0.94078404  0.21214468  0.09884479     0.14900
H157        H  0.05348905  0.20027686  0.11001424     0.13700
H158        H  0.02844793  0.42367005  0.18260418     0.11400
H159        H  0.94588268  0.37639399  0.22473782     0.13400
C160        C  0.99350754  0.26029668  0.37251667     0.19500
C161        C  0.95193733  0.27198876  0.35339664    -0.18600
C162        C  0.95234158  0.31482761  0.33388076    -0.10900
C163        C  0.99446958  0.34710348  0.33325561     0.21700
C164        C  0.03593063  0.33558203  0.35252477    -0.20200
C165        C  0.03561076  0.29264490  0.37193284    -0.11100
C166        C  0.99564004  0.39436065  0.31428941    -0.15200
C167        C  0.96698248  0.40257937  0.28811369    -0.29100
C168        C  0.99024736  0.21601230  0.39427310    -0.03300
C169        C  0.03052609  0.19255382  0.40595031    -0.39900
H170        H  0.91877287  0.24811576  0.35381722     0.12900
H171        H  0.91903029  0.32314879  0.32017470     0.12500
H172        H  0.06855531  0.36020155  0.35281357     0.12000
H173        H  0.06775618  0.28594713  0.38711837     0.12200
H174        H  0.02266340  0.42309212  0.32144066     0.14900
H175        H  0.94258941  0.37314827  0.27898241     0.13700
H176        H  0.95309336  0.20203378  0.40082048     0.11400
H177        H  0.06805748  0.20401456  0.39865042     0.13400
C178        C  0.98319003  0.64766672  0.17215825     0.19500
C179        C  0.94977402  0.65973588  0.14732165    -0.18600
C180        C  0.95691119  0.70308497  0.12882663    -0.10900
C181        C  0.99799540  0.73541044  0.13465441     0.21700
C182        C  0.03203518  0.72297005  0.15911743    -0.20200
C183        C  0.02465468  0.67964873  0.17785975    -0.11100
C184        C  0.00737912  0.78056374  0.11425764    -0.15200
C185        C  0.96986319  0.80562505  0.10035861    -0.29100
C186        C  0.97485195  0.60009902  0.19022634    -0.03300
C187        C  0.99179167  0.59202173  0.22044548    -0.39900
H188        H  0.91807605  0.63532417  0.14206364     0.12900
H189        H  0.93090966  0.71032874  0.10937538     0.12500
H190        H  0.06445261  0.74676486  0.16366439     0.12000
H191        H  0.05215660  0.67074086  0.19609656     0.12200
H192        H  0.04584405  0.79325823  0.11049061     0.14900
H193        H  0.93123964  0.79494906  0.10548821     0.13700
H194        H  0.95188283  0.57145306  0.17863861     0.11400
H195        H  0.01075538  0.62223739  0.23303379     0.13400
C196        C  0.99324331  0.66547358  0.31875968     0.19500
C197        C  0.03551497  0.69079770  0.33082137    -0.18600
C198        C  0.03043432  0.73131468  0.35182758    -0.10900
C199        C  0.98259469  0.74735493  0.36157585     0.21700
C200        C  0.94026316  0.72312033  0.34856543    -0.20200
C201        C  0.94538229  0.68276978  0.32731884    -0.11100
C202        C  0.97521724  0.78890894  0.38511146    -0.15200
C203        C  0.01186414  0.80637419  0.40443014    -0.29100
C204        C  0.00090451  0.62177454  0.29713143    -0.03300
C205        C  0.96525095  0.58708200  0.29119497    -0.39900
H206        H  0.07278716  0.67895168  0.32414431     0.12900
H207        H  0.06433260  0.74982313  0.35993542     0.12500
H208        H  0.90299930  0.73516939  0.35508476     0.12000
H209        H  0.91170635  0.66571136  0.31760172     0.12200
H210        H  0.93792761  0.80421031  0.38754516     0.14900
H211        H  0.04900106  0.79078992  0.40343480     0.13700
H212        H  0.03810841  0.61637937  0.28702033     0.11400
H213        H  0.92944767  0.58838746  0.30364005     0.13400
C214        C  0.00463665  0.84539333  0.92901995     0.43300
N215        N  0.02211510  0.89189571  0.96970790     0.02100
C216        C  0.86768645  0.04977575  0.55591159    -0.05700
H217        H  0.87522987  0.09452053  0.93673474     0.07600
C218        C  0.06673941  0.12625408  0.94567639    -0.06100
Co219      Co  0.93265155  0.94022807  0.99855322     0.74200
N220        N  0.90834668  0.03404958  0.96337023    -0.25300
Co221      Co  0.94747083  0.06938998  0.50059331     0.74100
C222        C  0.02571451  0.15123336  0.92947485     0.43400
N223        N  0.11355481  0.01064639  0.97183543     0.01800
N224        N  0.99553182  0.10393421  0.96695768     0.01900
N225        N  0.85830382  0.96579788  0.55153678    -0.46100
H226        H  0.92064787  0.86472146  0.93193280     0.07600
N227        N  0.90340610  0.98488397  0.96164918     0.02200
N228        N  0.98857464  0.10397025  0.53764960     0.03000
C229        C  0.01346520  0.15171570  0.57618365     0.43500
N230        N  0.10810739  0.96153409  0.97335220    -0.24700
C231        C  0.93847981  0.87016774  0.55842206    -0.05600
N232        N  0.04201062  0.86105771  0.94843168    -0.45800
N233        N  0.97242768  0.13647744  0.55950268    -0.46000
C234        C  0.97790556  0.84659765  0.57689563     0.43300
N235        N  0.89387002  0.98313732  0.53195404     0.02100
N236        N  0.10016844  0.96418159  0.54377649    -0.24700
N237        N  0.97348970  0.89742354  0.96570062    -0.25200
N238        N  0.10538866  0.01330651  0.54256533     0.01800
H239        H  0.13198861  0.90821604  0.57524068     0.07700
H240        H  0.09574898  0.13145638  0.56814401     0.07700
N241        N  0.89989232  0.03221145  0.53362370    -0.25300
N242        N  0.04443411  0.09782308  0.96850402    -0.24900
N243        N  0.01135720  0.89309838  0.54009405     0.02100
C244        C  0.85727633  0.01288719  0.92336998     0.43500
C245        C  0.13785936  0.94074723  0.95114583    -0.06100
N246        N  0.03760032  0.09847475  0.53865902    -0.24900
H247        H  0.10670554  0.13087079  0.94212893     0.07700
N248        N  0.87224984  0.97056411  0.93832287    -0.46100
H249        H  0.14226691  0.90106649  0.94720814     0.07700
C250        C  0.14921596  0.99222551  0.58358073     0.43400
C251        C  0.95874424  0.86926722  0.94036917    -0.05600
Co252      Co  0.06098915  0.92681935  0.00705516     0.73800
N253        N  0.14682298  0.02513447  0.94954847    -0.45800
C254        C  0.84038889  0.00530457  0.56774954     0.43600
N255        N  0.02229539  0.86184586  0.56403482    -0.45800
Co256      Co  0.07596625  0.05551170  0.50521386     0.73900
C257        C  0.05645485  0.12686376  0.56240644    -0.06100
C258        C  0.88074602  0.05484167  0.94009591    -0.05700
N259        N  0.96260518  0.89794691  0.53610934    -0.25200
N260        N  0.98267020  0.13601734  0.94402546    -0.46000
H261        H  0.86172596  0.08879873  0.56135897     0.07700
C262        C  0.12692759  0.94712957  0.56899574    -0.06100
Cl263      Cl  0.00421548  0.99800486  0.50287181    -0.49100
C264        C  0.16306773  0.98277039  0.93533877     0.43400
H265        H  0.89828405  0.86542751  0.56050929     0.07600
N266        N  0.13436514  0.03137862  0.56573628    -0.45800
C267        C  0.97486217  0.54186656  0.77164557     0.03100
C268        C  0.98375156  0.54352895  0.73779464     0.03000
C269        C  0.98443431  0.49822045  0.72037240    -0.17500
C270        C  0.97657377  0.45177574  0.73592626     0.03100
C271        C  0.97070244  0.45053939  0.76997816     0.03000
C272        C  0.96904241  0.49559117  0.78726469    -0.17500
H273        H  0.96224289  0.49465901  0.81322784     0.05100
H274        H  0.99015096  0.49914533  0.69437557     0.05100
C275        C  0.55180652  0.99813862  0.76831547     0.03100
C276        C  0.54995441  0.99229866  0.73418124     0.03000
C277        C  0.50316925  0.98586366  0.71905633    -0.17500
C278        C  0.45803157  0.98848366  0.73663132     0.03100
C279        C  0.45968618  0.99792545  0.77031095     0.03000
C280        C  0.50650430  0.00244367  0.78568298    -0.17500
H281        H  0.50756676  0.01169512  0.81119006     0.05100
H282        H  0.50199979  0.97707670  0.69345212     0.05100
C283        C  0.35277689  0.98327889  0.67223698     0.19500
C284        C  0.34009915  0.01507473  0.64658318    -0.18600
C285        C  0.29557321  0.00761856  0.62958805    -0.10900
C286        C  0.26268257  0.96783460  0.63776023     0.21700
C287        C  0.27596571  0.93500558  0.66276345    -0.20200
C288        C  0.32048475  0.94277211  0.68005042    -0.11100
C289        C  0.21572503  0.95911852  0.61930774    -0.15200
C290        C  0.19008510  0.99756906  0.60713169    -0.29100
C291        C  0.40093360  0.99253012  0.68920928    -0.03300
C292        C  0.40940725  0.97851109  0.72004448    -0.39900
H293        H  0.36473856  0.04592446  0.63968120     0.12900
H294        H  0.28753907  0.03249768  0.60957263     0.12500
H295        H  0.25174251  0.90352807  0.66901912     0.12000
H296        H  0.32991695  0.91646366  0.69897159     0.12200
H297        H  0.20293975  0.92092626  0.61509963     0.14900
H298        H  0.20178169  0.03563703  0.61279931     0.13700
H299        H  0.42952654  0.01417120  0.67632723     0.11400
H300        H  0.37943115  0.96083556  0.73399353     0.13400
C301        C  0.36095651  0.99986701  0.83965080     0.19500
C302        C  0.35191229  0.96852264  0.86641743    -0.18600
C303        C  0.30918902  0.97419428  0.88557156    -0.10900
C304        C  0.27446140  0.01169672  0.87850654     0.21700
C305        C  0.28419292  0.04427406  0.85240221    -0.20200
C306        C  0.32690280  0.03829383  0.83296248    -0.11100
C307        C  0.22890787  0.01799816  0.89882581    -0.15200
C308        C  0.20534971  0.97850492  0.91256794    -0.29100
C309        C  0.40730456  0.99225430  0.82031142    -0.03300
C310        C  0.41272481  0.00640349  0.78912358    -0.39900
H311        H  0.37797144  0.93930219  0.87248855     0.12900
H312        H  0.30389453  0.94962954  0.90626538     0.12500
H313        H  0.25848630  0.07404889  0.84688471     0.12000
H314        H  0.33349931  0.06431058  0.81319548     0.12200
H315        H  0.21428226  0.05534762  0.90222274     0.14900
H316        H  0.21790611  0.94090621  0.90737543     0.13700
H317        H  0.43724364  0.97169629  0.83180033     0.11400
H318        H  0.38145115  0.02306472  0.77657472     0.13400
C319        C  0.64634231  0.01716796  0.66558410     0.19500
C320        C  0.64538719  0.01109148  0.63182574    -0.18600
C321        C  0.68930708  0.01675856  0.61351524    -0.10900
C322        C  0.73472181  0.03001255  0.62861206     0.21700
C323        C  0.73542489  0.03759828  0.66224312    -0.20200
C324        C  0.69172054  0.03063488  0.68069223    -0.11100
C325        C  0.78155487  0.03595158  0.60949739    -0.15200
C326        C  0.79396745  0.00215785  0.58702795    -0.29100
C327        C  0.59896783  0.01248940  0.68422190    -0.03300
C328        C  0.59665385  0.99232913  0.71416940    -0.39900
H329        H  0.61065886  0.00152868  0.61966877     0.12900
H330        H  0.68767649  0.01154688  0.58749103     0.12500
H331        H  0.76996684  0.04818838  0.67426704     0.12000
H332        H  0.69317926  0.03693835  0.70661330     0.12200
H333        H  0.80752079  0.06625467  0.61538996     0.14900
H334        H  0.77003028  0.96938324  0.58346364     0.13700
H335        H  0.56534828  0.02659621  0.67289537     0.11400
H336        H  0.63052577  0.97727910  0.72456739     0.13400
C337        C  0.65621744  0.98791263  0.83283949     0.19500
C338        C  0.65969416  0.00417758  0.86503882    -0.18600
C339        C  0.70534332  0.00261562  0.88141567    -0.10900
C340        C  0.74805508  0.98333312  0.86613569     0.21700
C341        C  0.74445535  0.96620162  0.83408638    -0.20200
C342        C  0.69902926  0.96915333  0.81734241    -0.11100
C343        C  0.79579639  0.97918296  0.88404978    -0.15200
C344        C  0.81286039  0.01685623  0.90257126    -0.29100
C345        C  0.60676710  0.98743633  0.81675453    -0.03300
C346        C  0.60086156  0.00156955  0.78565402    -0.39900
H347        H  0.62697827  0.01812516  0.87751588     0.12900
H348        H  0.70695139  0.01516398  0.90635342     0.12500
H349        H  0.77682830  0.95077150  0.82201646     0.12000
H350        H  0.69693833  0.95533466  0.79270271     0.12200
H351        H  0.81739336  0.94525175  0.88165453     0.14900
H352        H  0.79318489  0.05214921  0.90276696     0.13700
H353        H  0.57483969  0.97499367  0.83117797     0.11400
H354        H  0.63369865  0.01496319  0.77248404     0.13400
C355        C  0.99319730  0.35115523  0.66943770     0.19500
C356        C  0.03378818  0.33545893  0.65059453    -0.18600
C357        C  0.02935097  0.29331589  0.63080276    -0.10900
C358        C  0.98393433  0.26585880  0.62935270     0.21700
C359        C  0.94290964  0.28226343  0.64758202    -0.20200
C360        C  0.94743409  0.32436847  0.66753653    -0.11100
C361        C  0.97790032  0.22147886  0.60795397    -0.15200
C362        C  0.01676393  0.19278464  0.59979314    -0.29100
C363        C  0.99924481  0.39690029  0.68951471    -0.03300
C364        C  0.97202652  0.40510866  0.71643881    -0.39900
H365        H  0.06910355  0.35596890  0.65113790     0.12900
H366        H  0.06127502  0.28320462  0.61611679     0.12500
H367        H  0.90728100  0.26241408  0.64639353     0.12000
H368        H  0.91471936  0.33640410  0.68078268     0.12200
H369        H  0.94078420  0.21214492  0.59884478     0.14900
H370        H  0.05348896  0.20027664  0.61001432     0.13700
H371        H  0.02844857  0.42366977  0.68260447     0.11400
H372        H  0.94588275  0.37639415  0.72473784     0.13400
C373        C  0.99350783  0.26029674  0.87251669     0.19500
C374        C  0.95193772  0.27198872  0.85339654    -0.18600
C375        C  0.95234194  0.31482759  0.83388069    -0.10900
C376        C  0.99446988  0.34710355  0.83325568     0.21700
C377        C  0.03593086  0.33558219  0.85252493    -0.20200
C378        C  0.03561096  0.29264505  0.87193297    -0.11100
C379        C  0.99564033  0.39436079  0.81428954    -0.15200
C380        C  0.96698284  0.40257941  0.78811374    -0.29100
C381        C  0.99024758  0.21601235  0.89427310    -0.03300
C382        C  0.03052627  0.19255393  0.90595039    -0.39900
H383        H  0.91877331  0.24811560  0.85381700     0.12900
H384        H  0.91903075  0.32314869  0.82017458     0.12500
H385        H  0.06855545  0.36020177  0.85281381     0.12000
H386        H  0.06775637  0.28594734  0.88711862     0.12200
H387        H  0.02266346  0.42309219  0.82144085     0.14900
H388        H  0.94258998  0.37314839  0.77898244     0.13700
H389        H  0.95309357  0.20203375  0.90082038     0.11400
H390        H  0.06805775  0.20401478  0.89865058     0.13400
C391        C  0.98319040  0.64766670  0.67215822     0.19500
C392        C  0.94977424  0.65973590  0.64732172    -0.18600
C393        C  0.95691131  0.70308505  0.62882675    -0.10900
C394        C  0.99799552  0.73541051  0.63465445     0.21700
C395        C  0.03203539  0.72297006  0.65911739    -0.20200
C396        C  0.02465505  0.67964871  0.67785967    -0.11100
C397        C  0.00737925  0.78056380  0.61425766    -0.15200
C398        C  0.96986321  0.80562508  0.60035868    -0.29100
C399        C  0.97485246  0.60009891  0.69022624    -0.03300
C400        C  0.99179201  0.59202172  0.72044544    -0.39900
H401        H  0.91807630  0.63532421  0.64206375     0.12900
H402        H  0.93090960  0.71032887  0.60937550     0.12500
H403        H  0.06445292  0.74676495  0.66366432     0.12000
H404        H  0.05215710  0.67074078  0.69609642     0.12200
H405        H  0.04584401  0.79325821  0.61049059     0.14900
H406        H  0.93123985  0.79494919  0.60548833     0.13700
H407        H  0.95188358  0.57145291  0.67863844     0.11400
H408        H  0.01075548  0.62223747  0.73303376     0.13400
C409        C  0.99324354  0.66547385  0.81875957     0.19500
C410        C  0.03551511  0.69079799  0.83082131    -0.18600
C411        C  0.03043443  0.73131496  0.85182750    -0.10900
C412        C  0.98259477  0.74735519  0.86157572     0.21700
C413        C  0.94026330  0.72312057  0.84856526    -0.20200
C414        C  0.94538246  0.68277000  0.82731868    -0.11100
C415        C  0.97521723  0.78890918  0.88511136    -0.15200
C416        C  0.01186417  0.80637428  0.90443012    -0.29100
C417        C  0.00090479  0.62177479  0.79713134    -0.03300
C418        C  0.96525130  0.58708212  0.79119496    -0.39900
H419        H  0.07278750  0.67895190  0.82414428     0.12900
H420        H  0.06433264  0.74982342  0.85993537     0.12500
H421        H  0.90299933  0.73516963  0.85508457     0.12000
H422        H  0.91170668  0.66571158  0.81760157     0.12200
H423        H  0.93792774  0.80421053  0.88754499     0.14900
H424        H  0.04900091  0.79079002  0.90343482     0.13700
H425        H  0.03810872  0.61637969  0.78702021     0.11400
H426        H  0.92944804  0.58838752  0.80364010     0.13400
loop_ 
_geom_bond_atom_site_label_1 
_geom_bond_atom_site_label_2 
_geom_bond_distance 
_geom_bond_site_symmetry_2 
_ccdc_geom_bond_type 
C1           N19   1.344       .  A
C1           C38   1.466   1_455  S
C1          C203   1.471       .  S
N2           N19   1.321       .  A
N2           N24   1.320   1_455  A
N2          Co39   2.076       .  S
C3           N28   1.346       .  A
C3           C41   1.466       .  S
C3           H48   1.082       .  S
H4           C45   1.082       .  S
C5           N29   1.340       .  A
C5            C9   1.455       .  S
C5           H34   1.081       .  S
Co6          N24   2.089       .  S
Co6          N14   2.092       .  S
Co6         N259   2.084       .  S
Co6         N235   2.077       .  S
Co6        Cl263   2.445   1_655  S
N7           C45   1.337       .  A
N7           N14   1.321   1_545  A
N7         Co221   2.081       .  S
Co8          N28   2.096       .  S
Co8          N15   2.093       .  S
Co8         N220   2.081   1_554  S
Co8         N224   2.089   1_554  S
Co8         Cl50   2.456   1_645  S
C9           N47   1.351   1_455  A
C9          C169   1.471       .  S
N10          N17   1.320   1_545  A
N10          N40   1.328       .  A
N10        Co256   2.091       .  S
N11          N29   1.320   1_655  A
N11          N47   1.324       .  A
N11        Co221   2.089       .  S
N12          C41   1.344   1_565  A
N12          N22   1.321       .  A
H13          C38   1.081       .  S
N14          N35   1.327       .  A
N15          N33   1.320   1_655  A
N15          N20   1.328       .  A
C16          N20   1.354   1_455  A
C16          C44   1.449       .  S
C16         C149   1.471       .  S
N17          C32   1.337       .  A
N17         Co39   2.077       .  S
C18          N46   1.337       .  A
C18          C21   1.452       .  S
C18          H52   1.082       .  S
C21          N42   1.353   1_655  A
C21         C185   1.472       .  S
N22          N28   1.321   1_565  A
N22        Co219   2.077   1_554  S
N23          C49   1.346       .  A
N23          N25   1.319   1_565  A
N23        Co252   2.091       .  S
N24          C38   1.345       .  A
N25          N53   1.320       .  A
N25         Co43   2.071       .  S
H26          C49   1.081       .  S
H27          C44   1.082       .  S
N29        Co256   2.076       .  S
N30          N42   1.328       .  A
N30          N46   1.321   1_455  A
N30        Co252   2.089       .  S
C31          N35   1.353   1_545  A
C31          C45   1.453       .  S
C31         C131   1.471       .  S
C32          C51   1.452       .  S
C32          H36   1.081       .  S
N33          C44   1.336       .  A
N33         Co43   2.074       .  S
C37          N53   1.343   1_565  A
C37          C49   1.467       .  S
C37          C77   1.469       .  S
Co39        N236   2.091       .  S
Co39        N243   2.089       .  S
Co39       Cl263   2.457       .  S
N40          C51   1.353   1_545  A
C41         C113   1.471       .  S
Co43        N223   2.091   1_554  S
Co43        N242   2.076   1_554  S
Co43        Cl50   2.440   1_545  S
N46        Co219   2.084   1_554  S
Cl50       Co219   2.445   1_454  S
Cl50       Co252   2.457       .  S
C51          C95   1.471       .  S
C54         C205   1.479       .  S
C54          C55   1.415       .  A
C54          C59   1.399       .  A
C55         C187   1.491       .  S
C55          C56   1.410       .  A
C56          H61   1.082       .  S
C56          C57   1.408       .  A
C57         C151   1.489       .  S
C57          C58   1.412       .  A
C58         C167   1.484       .  S
C58          C59   1.402       .  A
C59          H60   1.085       .  S
C62         C133   1.496   1_565  S
C62          C63   1.417       .  A
C62          C67   1.409   1_565  A
C63         C115   1.492       .  S
C63          C64   1.407       .  A
C64          H69   1.082       .  S
C64          C65   1.406       .  A
C65          C79   1.491       .  S
C65          C66   1.412       .  A
C66          C97   1.492   1_565  S
C66          C67   1.407   1_565  A
C67          H68   1.081       .  S
C70          C78   1.484       .  S
C70          C71   1.401   1_565  A
C70          C75   1.409       .  A
C71          H80   1.083       .  S
C71          C72   1.394       .  A
C72          H81   1.082       .  S
C72          C73   1.408   1_545  A
C73          C76   1.485       .  S
C73          C74   1.402       .  A
C74          H82   1.083       .  S
C74          C75   1.401       .  A
C75          H83   1.082       .  S
C76          H84   1.086       .  S
C76          C77   1.341       .  D
C77          H85   1.086   1_565  S
C78          H86   1.086   1_565  S
C78          C79   1.345       .  D
C79          H87   1.085       .  S
C88          C96   1.486       .  S
C88          C89   1.401       .  A
C88          C93   1.410   1_565  A
C89          H98   1.083       .  S
C89          C90   1.395       .  A
C90          H99   1.082       .  S
C90          C91   1.407   1_565  A
C91          C94   1.486       .  S
C91          C92   1.403       .  A
C92         H100   1.083       .  S
C92          C93   1.402       .  A
C93         H101   1.082       .  S
C94         H102   1.087       .  S
C94          C95   1.343   1_545  D
C95         H103   1.086       .  S
C96         H104   1.086       .  S
C96          C97   1.346   1_565  D
C97         H105   1.085       .  S
C106        C114   1.480       .  S
C106        C107   1.402       .  A
C106        C111   1.407       .  A
C107        H116   1.083       .  S
C107        C108   1.398       .  A
C108        H117   1.083       .  S
C108        C109   1.406       .  A
C109        C112   1.481       .  S
C109        C110   1.402       .  A
C110        H118   1.083       .  S
C110        C111   1.400       .  A
C111        H119   1.083       .  S
C112        H120   1.087       .  S
C112        C113   1.340       .  D
C113        H121   1.087   1_545  S
C114        H122   1.086       .  S
C114        C115   1.346   1_545  D
C115        H123   1.085       .  S
C124        C132   1.480       .  S
C124        C125   1.401   1_565  A
C124        C129   1.407       .  A
C125        H134   1.083       .  S
C125        C126   1.397       .  A
C126        H135   1.083       .  S
C126        C127   1.406   1_545  A
C127        C130   1.481       .  S
C127        C128   1.403       .  A
C128        H136   1.083       .  S
C128        C129   1.401       .  A
C129        H137   1.083       .  S
C130        H138   1.087       .  S
C130        C131   1.341   1_565  D
C131        H139   1.087       .  S
C132        H140   1.085       .  S
C132        C133   1.346   1_565  D
C133        H141   1.085       .  S
C142        C150   1.485       .  S
C142        C143   1.401   1_655  A
C142        C147   1.409       .  A
C143        H152   1.084       .  S
C143        C144   1.396       .  A
C144        H153   1.081       .  S
C144        C145   1.409   1_455  A
C145        C148   1.487       .  S
C145        C146   1.402       .  A
C146        H154   1.083       .  S
C146        C147   1.400       .  A
C147        H155   1.082       .  S
C148        H156   1.087       .  S
C148        C149   1.342   1_655  D
C149        H157   1.085       .  S
C150        H158   1.087   1_655  S
C150        C151   1.344       .  D
C151        H159   1.083       .  S
C160        C168   1.484       .  S
C160        C161   1.403       .  A
C160        C165   1.408   1_655  A
C161        H170   1.083       .  S
C161        C162   1.397       .  A
C162        H171   1.081       .  S
C162        C163   1.407       .  A
C163        C166   1.483       .  S
C163        C164   1.403   1_655  A
C164        H172   1.084       .  S
C164        C165   1.397       .  A
C165        H173   1.081       .  S
C166        H174   1.088   1_655  S
C166        C167   1.345       .  D
C167        H175   1.083       .  S
C168        H176   1.087       .  S
C168        C169   1.343   1_655  D
C169        H177   1.084       .  S
C178        C186   1.485       .  S
C178        C179   1.401       .  A
C178        C183   1.409   1_655  A
C179        H188   1.084       .  S
C179        C180   1.395       .  A
C180        H189   1.082       .  S
C180        C181   1.408       .  A
C181        C184   1.486   1_655  S
C181        C182   1.403   1_655  A
C182        H190   1.083       .  S
C182        C183   1.401       .  A
C183        H191   1.082       .  S
C184        H192   1.087       .  S
C184        C185   1.343   1_455  D
C185        H193   1.085       .  S
C186        H194   1.086       .  S
C186        C187   1.345       .  D
C187        H195   1.082   1_655  S
C196        C204   1.487   1_655  S
C196        C197   1.401   1_655  A
C196        C201   1.409       .  A
C197        H206   1.084       .  S
C197        C198   1.396       .  A
C198        H207   1.079       .  S
C198        C199   1.411   1_455  A
C199        C202   1.491       .  S
C199        C200   1.403       .  A
C200        H208   1.083       .  S
C200        C201   1.399       .  A
C201        H209   1.081       .  S
C202        H210   1.086       .  S
C202        C203   1.343   1_655  D
C203        H211   1.082       .  S
C204        H212   1.087       .  S
C204        C205   1.342   1_455  D
C205        H213   1.084       .  S
C214        N232   1.344       .  A
C214        C251   1.466   1_455  S
C214        C416   1.471       .  S
N215        N232   1.321       .  A
N215        N237   1.320   1_455  A
N215       Co252   2.076   1_556  S
C216        N241   1.346       .  A
C216        C254   1.466       .  S
C216        H261   1.081       .  S
H217        C258   1.082       .  S
C218        N242   1.340       .  A
C218        C222   1.455       .  S
C218        H247   1.081       .  S
Co219       N237   2.089       .  S
Co219       N227   2.092       .  S
N220        C258   1.337       .  A
N220        N227   1.321   1_545  A
Co221       N241   2.096       .  S
Co221       N228   2.093       .  S
Co221      Cl263   2.456   1_645  S
C222        N260   1.351   1_455  A
C222        C382   1.471       .  S
N223        N230   1.320   1_545  A
N223        N253   1.328       .  A
N224        N242   1.320   1_655  A
N224        N260   1.324       .  A
N225        C254   1.344   1_565  A
N225        N235   1.321       .  A
H226        C251   1.081       .  S
N227        N248   1.327       .  A
N228        N246   1.320   1_655  A
N228        N233   1.328       .  A
C229        N233   1.354   1_455  A
C229        C257   1.449       .  S
C229        C362   1.471       .  S
N230        C245   1.337       .  A
N230       Co252   2.077   1_556  S
C231        N259   1.337       .  A
C231        C234   1.452       .  S
C231        H265   1.082       .  S
C234        N255   1.353   1_655  A
C234        C398   1.472       .  S
N235        N241   1.321   1_565  A
N236        C262   1.346       .  A
N236        N238   1.319   1_565  A
N237        C251   1.345       .  A
N238        N266   1.320       .  A
N238       Co256   2.071       .  S
H239        C262   1.081       .  S
H240        C257   1.082       .  S
N243        N255   1.328       .  A
N243        N259   1.321   1_455  A
C244        N248   1.353   1_545  A
C244        C258   1.453       .  S
C244        C344   1.471       .  S
C245        C264   1.452       .  S
C245        H249   1.081       .  S
N246        C257   1.336       .  A
N246       Co256   2.074       .  S
C250        N266   1.343   1_565  A
C250        C262   1.467       .  S
C250        C290   1.469       .  S
N253        C264   1.353   1_545  A
C254        C326   1.471       .  S
Co256      Cl263   2.440   1_545  S
C264        C308   1.471       .  S
C267        C418   1.479       .  S
C267        C268   1.415       .  A
C267        C272   1.399       .  A
C268        C400   1.491       .  S
C268        C269   1.410       .  A
C269        H274   1.082       .  S
C269        C270   1.408       .  A
C270        C364   1.489       .  S
C270        C271   1.412       .  A
C271        C380   1.484       .  S
C271        C272   1.402       .  A
C272        H273   1.085       .  S
C275        C346   1.496   1_565  S
C275        C276   1.417       .  A
C275        C280   1.409   1_565  A
C276        C328   1.492       .  S
C276        C277   1.407       .  A
C277        H282   1.082       .  S
C277        C278   1.406       .  A
C278        C292   1.491       .  S
C278        C279   1.412       .  A
C279        C310   1.492   1_565  S
C279        C280   1.407   1_565  A
C280        H281   1.081       .  S
C283        C291   1.484       .  S
C283        C284   1.401   1_565  A
C283        C288   1.409       .  A
C284        H293   1.083       .  S
C284        C285   1.394       .  A
C285        H294   1.082       .  S
C285        C286   1.408   1_545  A
C286        C289   1.485       .  S
C286        C287   1.402       .  A
C287        H295   1.083       .  S
C287        C288   1.401       .  A
C288        H296   1.082       .  S
C289        H297   1.086       .  S
C289        C290   1.341       .  D
C290        H298   1.086   1_565  S
C291        H299   1.086   1_565  S
C291        C292   1.345       .  D
C292        H300   1.085       .  S
C301        C309   1.486       .  S
C301        C302   1.401       .  A
C301        C306   1.410   1_565  A
C302        H311   1.083       .  S
C302        C303   1.395       .  A
C303        H312   1.082       .  S
C303        C304   1.407   1_565  A
C304        C307   1.486       .  S
C304        C305   1.403       .  A
C305        H313   1.083       .  S
C305        C306   1.402       .  A
C306        H314   1.082       .  S
C307        H315   1.087       .  S
C307        C308   1.343   1_545  D
C308        H316   1.086       .  S
C309        H317   1.086       .  S
C309        C310   1.346   1_565  D
C310        H318   1.085       .  S
C319        C327   1.480       .  S
C319        C320   1.402       .  A
C319        C324   1.407       .  A
C320        H329   1.083       .  S
C320        C321   1.398       .  A
C321        H330   1.083       .  S
C321        C322   1.406       .  A
C322        C325   1.481       .  S
C322        C323   1.402       .  A
C323        H331   1.083       .  S
C323        C324   1.400       .  A
C324        H332   1.083       .  S
C325        H333   1.087       .  S
C325        C326   1.340       .  D
C326        H334   1.087   1_545  S
C327        H335   1.086       .  S
C327        C328   1.346   1_545  D
C328        H336   1.085       .  S
C337        C345   1.480       .  S
C337        C338   1.401   1_565  A
C337        C342   1.407       .  A
C338        H347   1.083       .  S
C338        C339   1.397       .  A
C339        H348   1.083       .  S
C339        C340   1.406   1_545  A
C340        C343   1.481       .  S
C340        C341   1.403       .  A
C341        H349   1.083       .  S
C341        C342   1.401       .  A
C342        H350   1.083       .  S
C343        H351   1.087       .  S
C343        C344   1.341   1_565  D
C344        H352   1.087       .  S
C345        H353   1.085       .  S
C345        C346   1.346   1_565  D
C346        H354   1.085       .  S
C355        C363   1.485       .  S
C355        C356   1.401   1_655  A
C355        C360   1.409       .  A
C356        H365   1.084       .  S
C356        C357   1.396       .  A
C357        H366   1.081       .  S
C357        C358   1.409   1_455  A
C358        C361   1.487       .  S
C358        C359   1.402       .  A
C359        H367   1.083       .  S
C359        C360   1.400       .  A
C360        H368   1.082       .  S
C361        H369   1.087       .  S
C361        C362   1.342   1_655  D
C362        H370   1.085       .  S
C363        H371   1.087   1_655  S
C363        C364   1.344       .  D
C364        H372   1.083       .  S
C373        C381   1.484       .  S
C373        C374   1.403       .  A
C373        C378   1.408   1_655  A
C374        H383   1.083       .  S
C374        C375   1.397       .  A
C375        H384   1.081       .  S
C375        C376   1.407       .  A
C376        C379   1.483       .  S
C376        C377   1.403   1_655  A
C377        H385   1.084       .  S
C377        C378   1.397       .  A
C378        H386   1.081       .  S
C379        H387   1.088   1_655  S
C379        C380   1.345       .  D
C380        H388   1.083       .  S
C381        H389   1.087       .  S
C381        C382   1.343   1_655  D
C382        H390   1.084       .  S
C391        C399   1.485       .  S
C391        C392   1.401       .  A
C391        C396   1.409   1_655  A
C392        H401   1.084       .  S
C392        C393   1.395       .  A
C393        H402   1.082       .  S
C393        C394   1.408       .  A
C394        C397   1.486   1_655  S
C394        C395   1.403   1_655  A
C395        H403   1.083       .  S
C395        C396   1.401       .  A
C396        H404   1.082       .  S
C397        H405   1.087       .  S
C397        C398   1.343   1_455  D
C398        H406   1.085       .  S
C399        H407   1.086       .  S
C399        C400   1.345       .  D
C400        H408   1.082   1_655  S
C409        C417   1.487   1_655  S
C409        C410   1.401   1_655  A
C409        C414   1.409       .  A
C410        H419   1.084       .  S
C410        C411   1.396       .  A
C411        H420   1.079       .  S
C411        C412   1.411   1_455  A
C412        C415   1.491       .  S
C412        C413   1.403       .  A
C413        H421   1.083       .  S
C413        C414   1.399       .  A
C414        H422   1.081       .  S
C415        H423   1.086       .  S
C415        C416   1.343   1_655  D
C416        H424   1.082       .  S
C417        H425   1.087       .  S
C417        C418   1.342   1_455  D
C418        H426   1.084       .  S
