geometry optimzed in LAMMPS
_audit_creation_date              2020-12-01 
_audit_creation_method            'lammps2cif' 
_symmetry_space_group_name_H-M    'P1' 
_symmetry_Int_Tables_number       1 
_symmetry_cell_setting            triclinic 
loop_ 
_symmetry_equiv_pos_as_xyz 
  x,y,z 
_cell_length_a                    40.22720534 
_cell_length_b                    39.94183050395285 
_cell_length_c                    39.916123419841945 
_cell_angle_alpha                 90.1087400894112 
_cell_angle_beta                  90.05296292781654 
_cell_angle_gamma                 90.07257661674211 
loop_ 
_atom_site_label 
_atom_site_type_symbol 
_atom_site_fract_x 
_atom_site_fract_y 
_atom_site_fract_z 
_atom_site_charge 
O1          O  0.03598297  0.19665129  0.46621578    -0.71800
O2          O  0.96786960  0.20555765  0.53285682    -0.72000
O3          O  0.96950381  0.20468533  0.46579974    -0.71900
O4          O  0.03446449  0.19699193  0.53498396    -0.71900
O5          O  0.04025750  0.25093714  0.53536600    -0.71800
O6          O  0.97711142  0.25819680  0.46432313    -0.71900
O7          O  0.97413391  0.25908936  0.53204272    -0.71800
O8          O  0.04321020  0.25036869  0.46742117    -0.72000
V9          V  0.00230111  0.20192335  0.49999317     1.35200
V10         V  0.00864105  0.25356226  0.49981308     1.35200
C11         C  0.05038833  0.22234901  0.45444271     0.77400
C12         C  0.95870753  0.23386475  0.54353375     0.77500
C13         C  0.96205680  0.23257831  0.45309066     0.77400
C14         C  0.04755024  0.22278737  0.54796888     0.77300
C15         C  0.28614137  0.23122597  0.24923261     0.02300
C16         C  0.26354966  0.22719552  0.27710079     0.02300
C17         C  0.23479329  0.24884042  0.28062883     0.02300
C18         C  0.23016992  0.27642842  0.25710364     0.02300
C19         C  0.25437347  0.28144267  0.23035976     0.02300
C20         C  0.28275244  0.25920350  0.22679752     0.02300
C21         C  0.77093144  0.25635712  0.71893163     0.02300
C22         C  0.77117390  0.28300197  0.74400902     0.02300
C23         C  0.74629633  0.28284627  0.77074194     0.02300
C24         C  0.72073082  0.25672259  0.77227761     0.02300
C25         C  0.72035524  0.23046038  0.74691192     0.02300
C26         C  0.74536951  0.23041029  0.72029829     0.02300
O27         O  0.46857413  0.03810645  0.24839989    -0.71800
O28         O  0.53506732  0.97149930  0.25741339    -0.72000
O29         O  0.53604139  0.03736103  0.24950717    -0.71900
O30         O  0.46764837  0.97154543  0.25590050    -0.71900
O31         O  0.46808625  0.96567897  0.20234301    -0.71800
O32         O  0.53783269  0.03009868  0.19570583    -0.71900
O33         O  0.53511428  0.96366794  0.20394547    -0.71800
O34         O  0.46949252  0.03242335  0.19441567    -0.72000
V35         V  0.50176520  0.00456006  0.25173057     1.35200
V36         V  0.50258043  0.99825674  0.20005688     1.35200
C37         C  0.45671327  0.04593905  0.22015345     0.77400
C38         C  0.54709941  0.95644256  0.23238610     0.77500
C39         C  0.55003989  0.04342536  0.22178141     0.77400
C40         C  0.45566702  0.95736251  0.23021972     0.77300
C41         C  0.71742333  0.76896520  0.25904745     0.02300
C42         C  0.71866791  0.74209830  0.23477465     0.02300
C43         C  0.74516435  0.71728871  0.23719484     0.02300
C44         C  0.76973625  0.71890527  0.26400725     0.02300
C45         C  0.76786611  0.74610497  0.28814807     0.02300
C46         C  0.74114730  0.77024834  0.28637161     0.02300
O47         O  0.96964066  0.75108821  0.53628638    -0.71800
O48         O  0.03712555  0.75787946  0.47043858    -0.72000
O49         O  0.03547021  0.75853648  0.53844473    -0.71900
O50         O  0.97154877  0.75073340  0.46877374    -0.71900
O51         O  0.96377221  0.80409229  0.46975694    -0.71800
O52         O  0.03044852  0.81250104  0.53754224    -0.71900
O53         O  0.03026611  0.81174381  0.46867269    -0.71800
O54         O  0.96446843  0.80464266  0.53749921    -0.72000
V55         V  0.00340466  0.75565862  0.50352598     1.35200
V56         V  0.99751631  0.80732811  0.50330094     1.35200
C57         C  0.95584994  0.77643765  0.54902926     0.77400
C58         C  0.04394378  0.78562559  0.45695232     0.77500
C59         C  0.04293415  0.78669138  0.55097155     0.77400
C60         C  0.95650015  0.77590811  0.45715351     0.77300
C61         C  0.22846609  0.71662606  0.73291824     0.02300
C62         C  0.23107830  0.74499747  0.71071102     0.02300
C63         C  0.25940024  0.76736030  0.71299234     0.02300
C64         C  0.28335828  0.76333298  0.74004447     0.02300
C65         C  0.27918245  0.73638434  0.76455518     0.02300
C66         C  0.25125107  0.71327260  0.76094146     0.02300
O67         O  0.46461778  0.02750154  0.73398650    -0.71800
O68         O  0.53539236  0.96435384  0.73225399    -0.72000
O69         O  0.46847846  0.96048306  0.73336324    -0.71900
O70         O  0.53150670  0.03182706  0.73235602    -0.71900
O71         O  0.53776736  0.02692173  0.78587406    -0.71800
O72         O  0.46526919  0.96473887  0.78751978    -0.71900
O73         O  0.53148684  0.95947706  0.78591594    -0.71800
O74         O  0.47087583  0.03248051  0.78747052    -0.72000
V75         V  0.50006491  0.99606344  0.73390910     1.35200
V76         V  0.50130959  0.99599150  0.78581629     1.35200
C77         C  0.45629288  0.04182236  0.76098765     0.77400
C78         C  0.54447203  0.94967453  0.75881500     0.77500
C79         C  0.45552343  0.95098166  0.76060368     0.77400
C80         C  0.54650605  0.04089445  0.75876564     0.77300
O81         O  0.20609850  0.53646744  0.03176735    -0.71800
O82         O  0.20326507  0.46363820  0.97020762    -0.72000
O83         O  0.20893773  0.46961061  0.03674721    -0.71900
O84         O  0.20050873  0.53170609  0.96447579    -0.71900
O85         O  0.25418708  0.53447769  0.96110647    -0.71800
O86         O  0.26226774  0.46975441  0.03057487    -0.71900
O87         O  0.25642355  0.46713640  0.96381215    -0.71800
O88         O  0.25954705  0.53780435  0.02811570    -0.72000
V89         V  0.20569164  0.50046224  0.00057000     1.35200
V90         V  0.25709458  0.50230615  0.99603246     1.35200
C91         C  0.23322367  0.54959018  0.04093827     0.77400
C92         C  0.22946759  0.45222606  0.95697457     0.77500
C93         C  0.23697875  0.45822070  0.04546462     0.77400
C94         C  0.22609850  0.54436755  0.95090487     0.77300
O95         O  0.78005667  0.47109763  0.04496859    -0.71800
O96         O  0.78154454  0.52624973  0.96780036    -0.72000
O97         O  0.78146424  0.53727552  0.03419419    -0.71900
O98         O  0.77986039  0.45997030  0.97815155    -0.71900
O99         O  0.72721498  0.46778774  0.97080687    -0.71800
O100        O  0.72835173  0.53178095  0.04111880    -0.71900
O101        O  0.72881337  0.53478721  0.97408547    -0.71800
O102        O  0.72701603  0.46472311  0.03845901    -0.72000
V103        V  0.77997537  0.49858677  0.00629452     1.35200
V104        V  0.72859413  0.49966664  0.00611772     1.35200
C105        C  0.75328741  0.45745521  0.05435319     0.77400
C106        C  0.75554881  0.54152848  0.95882649     0.77500
C107        C  0.75503520  0.54686942  0.04844882     0.77400
C108        C  0.75333825  0.45207099  0.96293128     0.77300
C109        C  0.77076371  0.74447796  0.72148039     0.02300
C110        C  0.77383573  0.71620701  0.74417367     0.02300
C111        C  0.75042440  0.71309708  0.77172631     0.02300
C112        C  0.72311792  0.73680884  0.77581596     0.02300
C113        C  0.71969460  0.76419520  0.75216074     0.02300
C114        C  0.74353780  0.76808077  0.72498501     0.02300
O115        O  0.73934036  0.96401216  0.53719857    -0.71800
O116        O  0.73682620  0.02552160  0.46474694    -0.72000
O117        O  0.74435067  0.03113654  0.53156380    -0.71900
O118        O  0.73192044  0.95870677  0.47059641    -0.71900
O119        O  0.67843978  0.96601810  0.47265864    -0.71800
O120        O  0.69111466  0.03236642  0.54060838    -0.71900
O121        O  0.68444551  0.03384675  0.47344137    -0.71800
O122        O  0.68554392  0.96465050  0.53970342    -0.72000
V123        V  0.73708004  0.99494433  0.50114909     1.35200
V124        V  0.68580422  0.99916535  0.50650674     1.35200
C125        C  0.71287066  0.95258589  0.54989927     0.77400
C126        C  0.71061512  0.04132336  0.45739252     0.77500
C127        C  0.71985393  0.04370045  0.54692408     0.77400
C128        C  0.70315342  0.95037141  0.46086434     0.77300
C129        C  0.77245766  0.27501502  0.26245638     0.02300
C130        C  0.76952318  0.24695315  0.28560236     0.02300
C131        C  0.74253865  0.22318983  0.28150749     0.02300
C132        C  0.72012926  0.22567414  0.25328355     0.02300
C133        C  0.72163914  0.25413751  0.23113505     0.02300
C134        C  0.74797829  0.27881015  0.23570654     0.02300
O135        O  0.96912496  0.53234623  0.31756945    -0.71800
O136        O  0.03460632  0.46281635  0.31124585    -0.72000
O137        O  0.03681438  0.53016147  0.31601524    -0.71900
O138        O  0.96720003  0.46473910  0.31242401    -0.71900
O139        O  0.96809229  0.46688145  0.25824073    -0.71800
O140        O  0.03384702  0.53571314  0.26216130    -0.71900
O141        O  0.03511434  0.46819814  0.25713553    -0.71800
O142        O  0.96648442  0.53449061  0.26330266    -0.72000
V143        V  0.00188680  0.49762958  0.31329016     1.35200
V144        V  0.00089312  0.50130871  0.26127767     1.35200
C145        C  0.95613104  0.54482480  0.29147920     0.77400
C146        C  0.04631725  0.45394888  0.28313917     0.77500
C147        C  0.04740166  0.54410083  0.28957972     0.77400
C148        C  0.95608415  0.45413466  0.28460782     0.77300
C149        C  0.27193470  0.77853466  0.24723173     0.02300
C150        C  0.24905611  0.78153917  0.27533523     0.02300
C151        C  0.22184757  0.75802019  0.27857692     0.02300
C152        C  0.21885827  0.72987891  0.25572532     0.02300
C153        C  0.24110807  0.72708218  0.22715135     0.02300
C154        C  0.26769268  0.75169134  0.22278599     0.02300
O155        O  0.27530289  0.04104325  0.53082335    -0.71800
O156        O  0.27148704  0.96906139  0.46748476    -0.72000
O157        O  0.27087512  0.97337961  0.53460229    -0.71900
O158        O  0.27516972  0.03637056  0.46367230    -0.71900
O159        O  0.32856455  0.03864865  0.46859343    -0.71800
O160        O  0.32376731  0.96492827  0.53038849    -0.71900
O161        O  0.32528350  0.97070303  0.46326936    -0.71800
O162        O  0.32842820  0.03314252  0.53588905    -0.72000
V163        V  0.27418620  0.00493364  0.49920360     1.35200
V164        V  0.32566924  0.00192568  0.49959197     1.35200
C165        C  0.30263279  0.04909077  0.54453801     0.77400
C166        C  0.29787988  0.95811317  0.45406436     0.77500
C167        C  0.29598871  0.95633039  0.54291702     0.77400
C168        C  0.30223109  0.04986095  0.45505348     0.77300
C169        C  0.22598745  0.27248774  0.74519671     0.02300
C170        C  0.22990042  0.24461774  0.72238607     0.02300
C171        C  0.25813125  0.22256209  0.72536698     0.02300
C172        C  0.28109276  0.22686019  0.75316321     0.02300
C173        C  0.27654396  0.25400665  0.77696384     0.02300
C174        C  0.24849235  0.27665091  0.77321091     0.02300
O175        O  0.97093475  0.53096331  0.67513416    -0.71800
O176        O  0.03569922  0.46066029  0.67991505    -0.72000
O177        O  0.96830610  0.46404266  0.68349405    -0.71900
O178        O  0.03925394  0.52716870  0.67155691    -0.71900
O179        O  0.04353376  0.53167998  0.72550265    -0.71800
O180        O  0.96998452  0.47242558  0.73715083    -0.71900
O181        O  0.03662877  0.46550463  0.73364795    -0.71800
O182        O  0.97611792  0.53900254  0.72867737    -0.72000
V183        V  0.00352792  0.49594667  0.67849361     1.35200
V184        V  0.00648481  0.50217082  0.73015013     1.35200
C185        C  0.96195912  0.54654197  0.70134113     0.77400
C186        C  0.04745761  0.45091504  0.70776307     0.77500
C187        C  0.95684504  0.45765524  0.71239197     0.77400
C188        C  0.05486260  0.53862358  0.69673865     0.77300
O189        O  0.52560654  0.25425437  0.96993206    -0.71800
O190        O  0.46533223  0.27153758  0.04211467    -0.72000
O191        O  0.45936063  0.26480346  0.97467436    -0.71900
O192        O  0.53093659  0.26090799  0.03715715    -0.71900
O193        O  0.53570362  0.31464211  0.03534773    -0.71800
O194        O  0.47011692  0.31727399  0.96556184    -0.71900
O195        O  0.46971086  0.32498513  0.03347898    -0.71800
O196        O  0.53680050  0.30731804  0.96750203    -0.72000
V197        V  0.49537340  0.26390878  0.00579227     1.35200
V198        V  0.50295307  0.31510727  0.00043475     1.35200
C199        C  0.54236367  0.27782413  0.95703481     0.77400
C200        C  0.45736073  0.30114975  0.05029506     0.77500
C201        C  0.45306554  0.29140380  0.95870202     0.77400
C202        C  0.54457839  0.28715338  0.04844238     0.77300
O203        O  0.45986560  0.70305297  0.03474047    -0.71800
O204        O  0.53097684  0.69384040  0.97152966    -0.72000
O205        O  0.52684294  0.69757748  0.03958596    -0.71900
O206        O  0.46421088  0.69920427  0.96716188    -0.71900
O207        O  0.46902299  0.75273464  0.96405277    -0.71800
O208        O  0.53112411  0.75169590  0.03698914    -0.71900
O209        O  0.53537608  0.74790717  0.96941922    -0.71800
O210        O  0.46412974  0.75707255  0.03163687    -0.72000
V211        V  0.49559350  0.69944148  0.00328044     1.35200
V212        V  0.49982948  0.75128330  0.00067498     1.35200
C213        C  0.44965810  0.73170005  0.04378084     0.77400
C214        C  0.54478775  0.71950368  0.95905725     0.77500
C215        C  0.53972293  0.72438926  0.05065051     0.77400
C216        C  0.45607564  0.72607944  0.95256630     0.77300
C217        C  0.30258897  0.26105578  0.80445275     0.01300
C218        C  0.31170347  0.23741272  0.82970658     0.04100
C219        C  0.33836723  0.24388104  0.85189722    -0.11900
C220        C  0.35258153  0.27600250  0.85409059     0.23400
C221        C  0.34286073  0.30031444  0.83045754    -0.12500
C222        C  0.32027866  0.29201612  0.80450811     0.04800
C223        C  0.37785207  0.28348598  0.88101646     0.27300
C224        C  0.36889601  0.28139718  0.91527396    -0.13200
C225        C  0.39347678  0.28344651  0.94051376     0.05400
C226        C  0.42666684  0.29156814  0.93231581    -0.09100
C227        C  0.43499035  0.29672925  0.89834537     0.06200
C228        C  0.41142131  0.29022176  0.87281884    -0.13500
Br229      Br  0.36123713  0.34500316  0.83265616    -0.05600
Br230      Br  0.28799828  0.19664789  0.83776155     0.00000
Br231      Br  0.38152422  0.27440127  0.98637138     0.00500
Br232      Br  0.42618657  0.28688492  0.82691143    -0.03900
Br233      Br  0.31986947  0.32057704  0.76573541     0.00600
Br234      Br  0.35683365  0.20789148  0.87858721    -0.03200
Br235      Br  0.32302308  0.27435405  0.92792073    -0.04100
Br236      Br  0.47889813  0.31198575  0.88648823    -0.00100
C237        C  0.07422864  0.42421980  0.70983372     0.01300
C238        C  0.09354964  0.42022665  0.73962050     0.04100
C239        C  0.12127512  0.39861710  0.74006902    -0.11900
C240        C  0.12770124  0.37685309  0.71307007     0.23400
C241        C  0.10844983  0.37980323  0.68370443    -0.12500
C242        C  0.08219895  0.40342086  0.68184405     0.04800
C243        C  0.15163477  0.34835704  0.71802430     0.27300
C244        C  0.18291707  0.34741750  0.70220677    -0.13200
C245        C  0.20573921  0.32138825  0.70952431     0.05400
C246        C  0.19992537  0.29896512  0.73664859    -0.09100
C247        C  0.16897221  0.30175151  0.75369400     0.06200
C248        C  0.14417671  0.32384495  0.74215057    -0.13500
Br249      Br  0.11834525  0.35152140  0.64571035    -0.05600
Br250      Br  0.08183035  0.44122123  0.78174464     0.00000
Br251      Br  0.24785449  0.32111527  0.68624892     0.00500
Br252      Br  0.09959824  0.32141559  0.76034085    -0.03900
Br253      Br  0.05613102  0.40420714  0.64110768     0.00600
Br254      Br  0.15131499  0.39886480  0.77800852    -0.03200
Br255      Br  0.19588487  0.38373384  0.67316518    -0.04100
Br256      Br  0.15994117  0.28003852  0.79541589    -0.00100
C257        C  0.30421758  0.07671379  0.56982372     0.01300
C258        C  0.31566541  0.07067606  0.60270363     0.04100
C259        C  0.31304538  0.09581803  0.62753872    -0.11900
C260        C  0.29936881  0.12742786  0.61968554     0.23400
C261        C  0.29012415  0.13420577  0.58632222    -0.12500
C262        C  0.29309465  0.10919832  0.56150490     0.04800
C263        C  0.28954946  0.15126523  0.64697073     0.27300
C264        C  0.25977426  0.14553442  0.66424409    -0.13200
C265        C  0.24863103  0.16807499  0.68915332     0.05400
C266        C  0.26716132  0.19776584  0.69717703    -0.09100
C267        C  0.29627180  0.20397421  0.67778006     0.06200
C268        C  0.30771819  0.18062486  0.65367209    -0.13500
Br269      Br  0.27111533  0.17715034  0.57509397    -0.05600
Br270      Br  0.33335472  0.02743779  0.61436788     0.00000
Br271      Br  0.20756813  0.15553912  0.70978533     0.00500
Br272      Br  0.34776590  0.18938860  0.62857988    -0.03900
Br273      Br  0.28358389  0.12029734  0.51574409     0.00600
Br274      Br  0.32557300  0.08599417  0.67302682    -0.03200
Br275      Br  0.23358639  0.10633155  0.65235201    -0.04100
Br276      Br  0.31793326  0.24702322  0.67975181    -0.00100
C277        C  0.42141270  0.73543128  0.06792815     0.01300
C278        C  0.39140527  0.71749720  0.06300770     0.04100
C279        C  0.36508389  0.72023590  0.08633870    -0.11900
C280        C  0.36856169  0.74038519  0.11518533     0.23400
C281        C  0.39802573  0.75907244  0.11961094    -0.12500
C282        C  0.42407151  0.75708306  0.09594904     0.04800
C283        C  0.34134980  0.74211850  0.14091222     0.27300
C284        C  0.31912379  0.76912510  0.14128037    -0.13200
C285        C  0.29544992  0.77262003  0.16731658     0.05400
C286        C  0.29239469  0.74807049  0.19330091    -0.09100
C287        C  0.31415534  0.71985340  0.19116610     0.06200
C288        C  0.33874617  0.71754783  0.16586537    -0.13500
Br289      Br  0.40267821  0.78733901  0.15850478    -0.05600
Br290      Br  0.38523313  0.69086165  0.02307301     0.00000
Br291      Br  0.26793680  0.81161073  0.16476675     0.00500
Br292      Br  0.37091679  0.68164515  0.16629720    -0.03900
Br293      Br  0.46353706  0.78383035  0.10274346     0.00600
Br294      Br  0.32369372  0.69716663  0.07843861    -0.03200
Br295      Br  0.32170530  0.80162103  0.10541431    -0.04100
Br296      Br  0.31467603  0.68567344  0.22501054    -0.00100
C297        C  0.25683920  0.80697779  0.30345199     0.01300
C298        C  0.23600665  0.83479222  0.31244153     0.04100
C299        C  0.24556317  0.85749421  0.33796013    -0.11900
C300        C  0.27663243  0.85482634  0.35367336     0.23400
C301        C  0.29705819  0.82731867  0.34600579    -0.12500
C302        C  0.28662555  0.80297740  0.32242255     0.04800
C303        C  0.28649552  0.88033803  0.37948115     0.27300
C304        C  0.29501223  0.91331430  0.36975589    -0.13200
C305        C  0.29965362  0.93860697  0.39412900     0.05400
C306        C  0.29655016  0.93104327  0.42844673    -0.09100
C307        C  0.29060552  0.89764196  0.43816512     0.06200
C308        C  0.28418505  0.87273085  0.41391587    -0.13500
Br309      Br  0.33895047  0.82220750  0.36909799    -0.05600
Br310      Br  0.19445754  0.84526494  0.29137967     0.00000
Br311      Br  0.30950445  0.98387536  0.38057557     0.00500
Br312      Br  0.26960872  0.82888794  0.42801178    -0.03900
Br313      Br  0.31030049  0.76111465  0.32162398     0.00600
Br314      Br  0.21556335  0.89260035  0.35273792    -0.03200
Br315      Br  0.29817857  0.92439418  0.32289992    -0.04100
Br316      Br  0.29325417  0.88546679  0.48464264    -0.00100
C317        C  0.07522125  0.56931432  0.29032081     0.01300
C318        C  0.09956536  0.56955376  0.26460731     0.04100
C319        C  0.12482082  0.59413424  0.26429532    -0.11900
C320        C  0.12523520  0.62017569  0.28821115     0.23400
C321        C  0.10230999  0.61898227  0.31493981    -0.12500
C322        C  0.07782168  0.59346298  0.31635826     0.04800
C323        C  0.14742750  0.65011753  0.28259836     0.27300
C324        C  0.17658954  0.65539624  0.30143478    -0.13200
C325        C  0.19876508  0.68181885  0.29322770     0.05400
C326        C  0.19355234  0.70225489  0.26436751    -0.09100
C327        C  0.16414035  0.69598213  0.24530473     0.06200
C328        C  0.14077557  0.67151443  0.25546120    -0.13500
Br329      Br  0.10415019  0.65257789  0.34954392    -0.05600
Br330      Br  0.09934238  0.53612914  0.22948033     0.00000
Br331      Br  0.23989761  0.68475793  0.31801977     0.00500
Br332      Br  0.09906857  0.66641702  0.23157404    -0.03900
Br333      Br  0.04705149  0.59322512  0.35347398     0.00600
Br334      Br  0.15928124  0.59235619  0.23080445    -0.03200
Br335      Br  0.18751169  0.62454598  0.33695519    -0.04100
Br336      Br  0.15486447  0.71769475  0.20366369    -0.00100
C337        C  0.69380438  0.26046643  0.20506856     0.01300
C338        C  0.67090405  0.28732850  0.21012034     0.04100
C339        C  0.64528641  0.29422776  0.18660352    -0.11900
C340        C  0.64367036  0.27675775  0.15601906     0.23400
C341        C  0.66691063  0.25140612  0.14981119    -0.12500
C342        C  0.68960398  0.24131076  0.17486123     0.04800
C343        C  0.61604647  0.28220503  0.13116152     0.27300
C344        C  0.59121553  0.25764245  0.12748070    -0.13200
C345        C  0.56968858  0.25782537  0.09949499     0.05400
C346        C  0.56942320  0.28554402  0.07692646    -0.09100
C347        C  0.59266725  0.31189892  0.08275850     0.06200
C348        C  0.61675917  0.30915396  0.10850964    -0.13500
Br349      Br  0.66739255  0.23052725  0.10586545    -0.05600
Br350      Br  0.67068761  0.31203113  0.25158738     0.00000
Br351      Br  0.54159724  0.21884567  0.09326529     0.00500
Br352      Br  0.65207035  0.34146643  0.11176540    -0.03900
Br353      Br  0.71194583  0.19999187  0.16527668     0.00600
Br354      Br  0.61097147  0.32635600  0.19686588    -0.03200
Br355      Br  0.58694178  0.22352334  0.16142904    -0.04100
Br356      Br  0.59335277  0.35186011  0.05549293    -0.00100
C357        C  0.80097837  0.30088813  0.26720573     0.01300
C358        C  0.80313129  0.32112245  0.29679697     0.04100
C359        C  0.82844347  0.34567219  0.30079818    -0.11900
C360        C  0.85352497  0.34957867  0.27658042     0.23400
C361        C  0.85320543  0.32854001  0.24841000    -0.12500
C362        C  0.82687966  0.30554604  0.24301707     0.04800
C363        C  0.87944688  0.37678733  0.27955505     0.27300
C364        C  0.87825779  0.40488616  0.25817600    -0.13200
C365        C  0.90379838  0.42923262  0.25873514     0.05400
C366        C  0.92970804  0.42745609  0.28284036    -0.09100
C367        C  0.93049758  0.39951753  0.30474787     0.06200
C368        C  0.90633518  0.37383087  0.30208706    -0.13500
Br369      Br  0.88996118  0.33140038  0.21712141    -0.05600
Br370      Br  0.76983872  0.31894916  0.33128930     0.00000
Br371      Br  0.90255785  0.46470318  0.22583066     0.00500
Br372      Br  0.91139786  0.33333316  0.32766106    -0.03900
Br373      Br  0.82889975  0.28140602  0.20173601     0.00600
Br374      Br  0.82821455  0.37542313  0.33904861    -0.03200
Br375      Br  0.84154787  0.40979407  0.22749413    -0.04100
Br376      Br  0.96573806  0.39474751  0.33732934    -0.00100
C377        C  0.71112762  0.06841206  0.43127032     0.01300
C378        C  0.74009769  0.08831575  0.42667433     0.04100
C379        C  0.74035877  0.11454059  0.40310264    -0.11900
C380        C  0.71280622  0.12008576  0.38190792     0.23400
C381        C  0.68386847  0.10054925  0.38631050    -0.12500
C382        C  0.68286252  0.07509344  0.41096477     0.04800
C383        C  0.71614455  0.14472836  0.35370714     0.27300
C384        C  0.69982481  0.17592307  0.35409746    -0.13200
C385        C  0.70690757  0.20015416  0.32917988     0.05400
C386        C  0.73492355  0.19631652  0.30763742    -0.09100
C387        C  0.75270252  0.16559625  0.30973710     0.06200
C388        C  0.74029643  0.13887973  0.32899272    -0.13500
Br389      Br  0.64549652  0.10838769  0.35837514    -0.05600
Br390      Br  0.78034429  0.08071199  0.45223583     0.00000
Br391      Br  0.68160917  0.24124784  0.32931757     0.00500
Br392      Br  0.75787563  0.09419346  0.32298733    -0.03900
Br393      Br  0.64307275  0.04818185  0.41469855     0.00600
Br394      Br  0.77884652  0.14357025  0.40008240    -0.03200
Br395      Br  0.67024321  0.18676647  0.39056393    -0.04100
Br396      Br  0.79712300  0.15994248  0.29350454    -0.00100
C397        C  0.69751966  0.73178238  0.80467737     0.01300
C398        C  0.69315604  0.75537647  0.83153059     0.04100
C399        C  0.67041957  0.74943355  0.85798099    -0.11900
C400        C  0.64953753  0.72134624  0.85764281     0.23400
C401        C  0.65296509  0.69787325  0.83165630    -0.12500
C402        C  0.67713538  0.70233781  0.80611160     0.04800
C403        C  0.62188228  0.71852637  0.88290003     0.27300
C404        C  0.62480355  0.69787618  0.91146072    -0.13200
C405        C  0.59891024  0.69647395  0.93549102     0.05400
C406        C  0.57053928  0.71712121  0.93210143    -0.09100
C407        C  0.56731550  0.73703446  0.90299840     0.06200
C408        C  0.59274872  0.73768624  0.87868486    -0.13500
Br409      Br  0.62256307  0.66039892  0.83036273    -0.05600
Br410      Br  0.71713077  0.79659580  0.83493112     0.00000
Br411      Br  0.60282830  0.66656028  0.97317463     0.00500
Br412      Br  0.58805292  0.76563408  0.83966575    -0.03900
Br413      Br  0.67798063  0.66915928  0.77111310     0.00600
Br414      Br  0.66715224  0.78008239  0.89559185    -0.03200
Br415      Br  0.66510138  0.67288593  0.91853745    -0.04100
Br416      Br  0.52702205  0.76215195  0.89512514    -0.00100
C417        C  0.80098486  0.68926608  0.73700177     0.01300
C418        C  0.82650802  0.67944885  0.76021246     0.04100
C419        C  0.84987291  0.65411284  0.75204510    -0.11900
C420        C  0.85222175  0.64121660  0.71932404     0.23400
C421        C  0.82745094  0.65041955  0.69604272    -0.12500
C422        C  0.80110084  0.67210379  0.70552672     0.04800
C423        C  0.88041382  0.61761415  0.71035807     0.27300
C424        C  0.91392182  0.62880124  0.71141795    -0.13200
C425        C  0.94057049  0.60578121  0.70830587     0.05400
C426        C  0.93436802  0.57180653  0.70083566    -0.09100
C427        C  0.90108202  0.56134269  0.69631960     0.06200
C428        C  0.87438957  0.58334458  0.70345787    -0.13500
Br429      Br  0.82866815  0.63240507  0.65108972    -0.05600
Br430      Br  0.83337989  0.69991812  0.80311318     0.00000
Br431      Br  0.98582685  0.62073554  0.71412205     0.00500
Br432      Br  0.83001689  0.56535142  0.70747398    -0.03900
Br433      Br  0.76203749  0.67201643  0.67762303     0.00600
Br434      Br  0.87831020  0.63533484  0.78648030    -0.03200
Br435      Br  0.92355143  0.67564424  0.71838840    -0.04100
Br436      Br  0.89185061  0.51674006  0.68028141    -0.00100
C437        C  0.73810638  0.79617586  0.69902146     0.01300
C438        C  0.70927507  0.79565212  0.67804611     0.04100
C439        C  0.70298814  0.82151344  0.65468125    -0.11900
C440        C  0.72443047  0.84914549  0.65231242     0.23400
C441        C  0.75243675  0.85074252  0.67314428    -0.12500
C442        C  0.76021883  0.82412623  0.69509146     0.04800
C443        C  0.71981517  0.87490515  0.62548700     0.27300
C444        C  0.73928938  0.87324512  0.59622973    -0.13200
C445        C  0.73731560  0.89867667  0.57186208     0.05400
C446        C  0.71427717  0.92533250  0.57553261    -0.09100
C447        C  0.69342267  0.92587013  0.60414486     0.06200
C448        C  0.69733494  0.90163275  0.62958423    -0.13500
Br449      Br  0.78021436  0.89038962  0.67113855    -0.05600
Br450      Br  0.68064408  0.75701829  0.67626867     0.00000
Br451      Br  0.76589144  0.89561596  0.53302971     0.00500
Br452      Br  0.67352768  0.90627094  0.67110766    -0.03900
Br453      Br  0.80172973  0.82873960  0.71845490     0.00600
Br454      Br  0.66589286  0.81845005  0.62403870    -0.03200
Br455      Br  0.76924397  0.83600483  0.58993256    -0.04100
Br456      Br  0.65981348  0.95995821  0.60958516    -0.00100
C457        C  0.75282917  0.43397341  0.08334145     0.01300
C458        C  0.78074662  0.41344102  0.09029740     0.04100
C459        C  0.78029847  0.39153638  0.11784668    -0.11900
C460        C  0.75132743  0.38801616  0.13732144     0.23400
C461        C  0.72387512  0.40910119  0.13132467    -0.12500
C462        C  0.72485983  0.43248284  0.10493255     0.04800
C463        C  0.74957514  0.36087761  0.16279717     0.27300
C464        C  0.74928457  0.32732028  0.15231429    -0.13200
C465        C  0.75275061  0.30142181  0.17583901     0.05400
C466        C  0.75011904  0.30791173  0.21088554    -0.09100
C467        C  0.74789551  0.34221896  0.22093131     0.06200
C468        C  0.75024256  0.36823998  0.19716319    -0.13500
Br469      Br  0.68496094  0.40642738  0.15961288    -0.05600
Br470      Br  0.81931686  0.41297500  0.06139898     0.00000
Br471      Br  0.76595570  0.25856004  0.15836424     0.00500
Br472      Br  0.75436401  0.41440734  0.21154698    -0.03900
Br473      Br  0.68831888  0.46355549  0.10023547     0.00600
Br474      Br  0.81967886  0.36623523  0.12933969    -0.03200
Br475      Br  0.74445326  0.31678506  0.10519595    -0.04100
Br476      Br  0.73844792  0.35601474  0.26585242    -0.00100
C477        C  0.75542049  0.68673779  0.79873585     0.01300
C478        C  0.75532881  0.65149468  0.79233437     0.04100
C479        C  0.75922692  0.62863700  0.81885741    -0.11900
C480        C  0.75835601  0.63985583  0.85216505     0.23400
C481        C  0.75839586  0.67431887  0.85897104    -0.12500
C482        C  0.75996854  0.69732965  0.83249241     0.04800
C483        C  0.75761494  0.61516713  0.87986678     0.27300
C484        C  0.72865061  0.59622344  0.88562911    -0.13200
C485        C  0.72832130  0.57134285  0.91048818     0.05400
C486        C  0.75644102  0.56667048  0.93139022    -0.09100
C487        C  0.78540095  0.58623799  0.92572976     0.06200
C488        C  0.78620945  0.60953972  0.89934789    -0.13500
Br489      Br  0.75672916  0.69018309  0.90468179    -0.05600
Br490      Br  0.74738236  0.63197014  0.74901862     0.00000
Br491      Br  0.68991730  0.54228056  0.91337971     0.00500
Br492      Br  0.82689825  0.63318548  0.88901049    -0.03900
Br493      Br  0.77523242  0.74187273  0.84290482     0.00600
Br494      Br  0.76588842  0.58142639  0.80994684    -0.03200
Br495      Br  0.68947951  0.60395381  0.85872604    -0.04100
Br496      Br  0.82399847  0.58294887  0.95445741    -0.00100
C497        C  0.22896368  0.42197452  0.93444657     0.01300
C498        C  0.19963206  0.41209588  0.91696543     0.04100
C499        C  0.20034941  0.38474864  0.89443276    -0.11900
C500        C  0.23027579  0.36774135  0.88800832     0.23400
C501        C  0.25896648  0.37644578  0.90614402    -0.12500
C502        C  0.25818985  0.40242504  0.93005733     0.04800
C503        C  0.23290605  0.34459683  0.85866807     0.27300
C504        C  0.22838746  0.30989952  0.86190028    -0.13200
C505        C  0.23187337  0.28858941  0.83374730     0.05400
C506        C  0.24080781  0.30146925  0.80168382    -0.09100
C507        C  0.24335048  0.33719841  0.79879292     0.06200
C508        C  0.23998253  0.35810888  0.82714321    -0.13500
Br509      Br  0.30008981  0.35390119  0.89650439    -0.05600
Br510      Br  0.15829174  0.43622898  0.92164347     0.00000
Br511      Br  0.22012021  0.24210730  0.83900911     0.00500
Br512      Br  0.24573377  0.40629277  0.82354170    -0.03900
Br513      Br  0.29743408  0.40918326  0.95739843     0.00600
Br514      Br  0.16065969  0.37120624  0.87072973    -0.03200
Br515      Br  0.21709594  0.29186624  0.90522427    -0.04100
Br516      Br  0.25100488  0.36076492  0.75782919    -0.00100
C517        C  0.23553274  0.70030082  0.19971438     0.01300
C518        C  0.23827400  0.66483534  0.20505298     0.04100
C519        C  0.23572686  0.64195473  0.17804621    -0.11900
C520        C  0.23341947  0.65342435  0.14494535     0.23400
C521        C  0.23014873  0.68792059  0.13912222    -0.12500
C522        C  0.22867693  0.71065649  0.16623777     0.04800
C523        C  0.23391081  0.62878628  0.11655754     0.27300
C524        C  0.26347903  0.61172231  0.10843672    -0.13200
C525        C  0.26341147  0.58571986  0.08436880     0.05400
C526        C  0.23389303  0.57772853  0.06626797    -0.09100
C527        C  0.20456627  0.59647042  0.07348857     0.06200
C528        C  0.20441877  0.62064888  0.09937084    -0.13500
Br529      Br  0.22806928  0.70411110  0.09360729    -0.05600
Br530      Br  0.24836475  0.64462002  0.24732129     0.00000
Br531      Br  0.30400656  0.56038756  0.07883933     0.00500
Br532      Br  0.16316857  0.64163127  0.11269067    -0.03900
Br533      Br  0.21174100  0.75461838  0.15694030     0.00600
Br534      Br  0.23635652  0.59397790  0.18579610    -0.03200
Br535      Br  0.30408286  0.62327479  0.13172032    -0.04100
Br536      Br  0.16408536  0.59103156  0.04777500    -0.00100
C537        C  0.43042933  0.06894582  0.76143439     0.01300
C538        C  0.42385283  0.08818871  0.73218518     0.04100
C539        C  0.39975317  0.11378676  0.73275537    -0.11900
C540        C  0.38195149  0.12087820  0.76228729     0.23400
C541        C  0.38897574  0.10276907  0.79165252    -0.12500
C542        C  0.41235535  0.07643468  0.79118071     0.04800
C543        C  0.35652283  0.14811216  0.76251100     0.27300
C544        C  0.36662272  0.18172618  0.76159530    -0.13200
C545        C  0.34302428  0.20751857  0.75741550     0.05400
C546        C  0.30816671  0.20039438  0.75814278    -0.09100
C547        C  0.29863782  0.16642809  0.76329677     0.06200
C548        C  0.32241361  0.14051586  0.76333292    -0.13500
Br549      Br  0.36731937  0.11527496  0.83304560    -0.05600
Br550      Br  0.44821467  0.08147422  0.69089939     0.00000
Br551      Br  0.36114309  0.25108787  0.74921598     0.00500
Br552      Br  0.30819406  0.09432567  0.76492452    -0.03900
Br553      Br  0.41748765  0.05018831  0.83152263     0.00600
Br554      Br  0.39207072  0.14047039  0.69314714    -0.03200
Br555      Br  0.41350023  0.19207955  0.76624756    -0.04100
Br556      Br  0.25378321  0.15499818  0.77581614    -0.00100
C557        C  0.56907633  0.92138174  0.75828778     0.01300
C558        C  0.57463980  0.90249291  0.72851665     0.04100
C559        C  0.59802990  0.87619334  0.72818069    -0.11900
C560        C  0.61522724  0.86738923  0.75760960     0.23400
C561        C  0.60834697  0.88444142  0.78766455    -0.12500
C562        C  0.58651542  0.91202266  0.78791698     0.04800
C563        C  0.64131957  0.84083706  0.75695419     0.27300
C564        C  0.63248088  0.80691670  0.75493905    -0.13200
C565        C  0.65724902  0.78188480  0.75330808     0.05400
C566        C  0.69180578  0.79024064  0.75595521    -0.09100
C567        C  0.69978221  0.82481177  0.76056804     0.06200
C568        C  0.67500335  0.84969400  0.75944877    -0.13500
Br569      Br  0.62870142  0.86921111  0.82885460    -0.05600
Br570      Br  0.54975639  0.91060562  0.68780478     0.00000
Br571      Br  0.64138916  0.73737995  0.74482652     0.00500
Br572      Br  0.68715739  0.89656385  0.76171775    -0.03900
Br573      Br  0.58301053  0.93732729  0.82915261     0.00600
Br574      Br  0.60600715  0.85142015  0.68733203    -0.03200
Br575      Br  0.58572325  0.79510177  0.75394316    -0.04100
Br576      Br  0.74374383  0.83950142  0.77277658    -0.00100
C577        C  0.43220214  0.72642169  0.92275000     0.01300
C578        C  0.42005307  0.69596209  0.90815380     0.04100
C579        C  0.39665969  0.69652267  0.88150473    -0.11900
C580        C  0.38608646  0.72698984  0.86742575     0.23400
C581        C  0.39866289  0.75714439  0.88072653    -0.12500
C582        C  0.42097128  0.75712014  0.90826914     0.04800
C583        C  0.35884334  0.72764232  0.84136221     0.27300
C584        C  0.36517764  0.72118705  0.80730771    -0.13200
C585        C  0.33906526  0.72196540  0.78329494     0.05400
C586        C  0.30594837  0.73130789  0.79221008    -0.09100
C587        C  0.30007946  0.73651779  0.82734591     0.06200
C588        C  0.32612536  0.73447397  0.85122698    -0.13500
Br589      Br  0.38348934  0.79892870  0.86181662    -0.05600
Br590      Br  0.43479585  0.65242661  0.92320676     0.00000
Br591      Br  0.34920371  0.70614828  0.73905120     0.00500
Br592      Br  0.31756224  0.74151322  0.89860285    -0.03900
Br593      Br  0.43419608  0.80035628  0.92577335     0.00600
Br594      Br  0.37730650  0.65529668  0.86505128    -0.03200
Br595      Br  0.41016373  0.71129316  0.79370811    -0.04100
Br596      Br  0.25772629  0.74709522  0.84601412    -0.00100
C597        C  0.20557611  0.68714333  0.72380987     0.01300
C598        C  0.21922815  0.65910807  0.70641126     0.04100
C599        C  0.19884815  0.63174113  0.69643126    -0.11900
C600        C  0.16538953  0.63007489  0.70661353     0.23400
C601        C  0.15242097  0.65614122  0.72608723    -0.12500
C602        C  0.17086136  0.68565405  0.73154224     0.04800
C603        C  0.14255107  0.60196401  0.69680208     0.27300
C604        C  0.11737240  0.60724531  0.67264027    -0.13200
C605        C  0.08944774  0.58561316  0.67084327     0.05400
C606        C  0.08643639  0.55854896  0.69347246    -0.09100
C607        C  0.11398209  0.55097345  0.71430642     0.06200
C608        C  0.14167364  0.57261703  0.71611048    -0.13500
Br609      Br  0.10859073  0.65091037  0.74569600    -0.05600
Br610      Br  0.26473753  0.66013163  0.69099184     0.00000
Br611      Br  0.05496716  0.59429557  0.63844529     0.00500
Br612      Br  0.17799362  0.56293343  0.74612314    -0.03900
Br613      Br  0.14407845  0.72337265  0.74329442     0.00600
Br614      Br  0.21620659  0.59696305  0.66783823    -0.03200
Br615      Br  0.12081314  0.64517407  0.64306566    -0.04100
Br616      Br  0.11495091  0.51008524  0.73952461    -0.00100
C617        C  0.26470822  0.79385112  0.68535785     0.01300
C618        C  0.27574321  0.78411909  0.65272489     0.04100
C619        C  0.28249419  0.80827722  0.62751678    -0.11900
C620        C  0.27714200  0.84253920  0.63354861     0.23400
C621        C  0.26444047  0.85244528  0.66471236    -0.12500
C622        C  0.25915684  0.82882364  0.69055379     0.04800
C623        C  0.28398271  0.86872734  0.60734298     0.27300
C624        C  0.31384063  0.88723345  0.60785593    -0.13200
C625        C  0.31801768  0.91568864  0.58712323     0.05400
C626        C  0.29212538  0.92616443  0.56533687    -0.09100
C627        C  0.26247007  0.90656558  0.56419225     0.06200
C628        C  0.25896861  0.87785136  0.58453740    -0.13500
Br629      Br  0.25331793  0.89922742  0.67126158    -0.05600
Br630      Br  0.28502575  0.73800020  0.64218981     0.00000
Br631      Br  0.35874283  0.94102188  0.59077591     0.00500
Br632      Br  0.21997245  0.85010986  0.58088630    -0.03900
Br633      Br  0.24445031  0.84701394  0.73211836     0.00600
Br634      Br  0.29943250  0.79480765  0.58431508    -0.03200
Br635      Br  0.34916965  0.87312746  0.63713031    -0.04100
Br636      Br  0.22610493  0.91743616  0.53427623    -0.00100
C637        C  0.22391624  0.57047328  0.92403508     0.01300
C638        C  0.20109358  0.56753834  0.89711005     0.04100
C639        C  0.20171424  0.59083239  0.87038388    -0.11900
C640        C  0.22523018  0.61708129  0.87003120     0.23400
C641        C  0.24680482  0.62098934  0.89760804    -0.12500
C642        C  0.24599725  0.59815495  0.92453442     0.04800
C643        C  0.22912294  0.63947787  0.84006402     0.27300
C644        C  0.25491460  0.63347904  0.81717056    -0.13200
C645        C  0.26250109  0.65698028  0.79178909     0.05400
C646        C  0.24347926  0.68681873  0.78777624    -0.09100
C647        C  0.21588224  0.69119063  0.80985078     0.05000
C648        C  0.20934050  0.66814548  0.83601745    -0.13500
Br649      Br  0.27802268  0.65768274  0.89808904    -0.05600
Br650      Br  0.17008386  0.53067737  0.89542986     0.00000
Br651      Br  0.29947493  0.64643646  0.76387124     0.00500
Br652      Br  0.17425717  0.67658628  0.86792067    -0.03900
Br653      Br  0.27447169  0.60611858  0.96278326     0.00600
Br654      Br  0.17079599  0.58650306  0.83375882    -0.03200
Br655      Br  0.28019577  0.59246218  0.82135164    -0.04100
Br656      Br  0.18918115  0.73113760  0.80851359    -0.00100
C657        C  0.31066535  0.78998811  0.74508100     0.01300
C658        C  0.33827103  0.79416491  0.72275472     0.04100
C659        C  0.36173989  0.82019000  0.72742018    -0.11900
C660        C  0.35871317  0.84269743  0.75419486     0.23400
C661        C  0.33227260  0.83883467  0.77680606    -0.12500
C662        C  0.30838554  0.81314277  0.77222338     0.04800
C663        C  0.38291259  0.87108948  0.75765923     0.27300
C664        C  0.41441359  0.86586923  0.77237426    -0.13200
C665        C  0.43764164  0.89233689  0.77445048     0.05400
C666        C  0.43006645  0.92397602  0.76075353    -0.09100
C667        C  0.39890348  0.92900971  0.74531527     0.06200
C668        C  0.37531793  0.90280485  0.74408753    -0.13500
Br669      Br  0.32863125  0.86973293  0.81388278    -0.05600
Br670      Br  0.34669092  0.76560746  0.68525046     0.00000
Br671      Br  0.48073403  0.88463336  0.79425535     0.00500
Br672      Br  0.33297846  0.90988209  0.72259187    -0.03900
Br673      Br  0.27070765  0.81323093  0.80171830     0.00600
Br674      Br  0.39886697  0.82563171  0.69690906    -0.03200
Br675      Br  0.42661013  0.82175892  0.78751399    -0.04100
Br676      Br  0.38854809  0.97194490  0.72582577    -0.00100
C677        C  0.19358987  0.76416153  0.30352710     0.01300
C678        C  0.19649527  0.75879102  0.33876857     0.04100
C679        C  0.16842004  0.76099265  0.35977357    -0.11900
C680        C  0.13854406  0.77487634  0.34796167     0.23400
C681        C  0.13587860  0.78294164  0.31371342    -0.12500
C682        C  0.16223947  0.77551242  0.29135585     0.04800
C683        C  0.11118146  0.78220976  0.37249543     0.27300
C684        C  0.08163139  0.76311829  0.37241791    -0.13200
C685        C  0.05890510  0.76581072  0.39919080     0.05400
C686        C  0.06603573  0.78659351  0.42704493    -0.09100
C687        C  0.09461722  0.80700669  0.42629805     0.06200
C688        C  0.11644528  0.80566562  0.39863075    -0.13500
Br689      Br  0.09722927  0.80689106  0.29795114    -0.05600
Br690      Br  0.23799787  0.75273424  0.36158052     0.00000
Br691      Br  0.01749873  0.74132041  0.39715800     0.00500
Br692      Br  0.15428918  0.83536473  0.39697803    -0.03900
Br693      Br  0.15714475  0.78808652  0.24490803     0.00600
Br694      Br  0.17084294  0.74488121  0.40552532    -0.03200
Br695      Br  0.07243328  0.73244465  0.33620178    -0.04100
Br696      Br  0.10572230  0.83435625  0.46451699    -0.00100
C697        C  0.93061151  0.77285145  0.57683079     0.01300
C698        C  0.91412504  0.80132547  0.59081372     0.04100
C699        C  0.88949350  0.79723289  0.61571394    -0.11900
C700        C  0.88168755  0.76523516  0.62793126     0.23400
C701        C  0.89891829  0.73725635  0.61583445    -0.12500
C702        C  0.92273730  0.74059065  0.59021001     0.04800
C703        C  0.85343754  0.76050339  0.65159163     0.27300
C704        C  0.85848015  0.76156790  0.68632618    -0.13200
C705        C  0.83154206  0.75704917  0.70847451     0.05400
C706        C  0.79878296  0.75066714  0.69626687    -0.09100
C707        C  0.79426296  0.75002796  0.66066631     0.06200
C708        C  0.82147301  0.75470095  0.63885721    -0.13500
Br709      Br  0.88915196  0.69389766  0.63457092    -0.05600
Br710      Br  0.92412432  0.84668676  0.57715751     0.00000
Br711      Br  0.83947886  0.76564902  0.75536260     0.00500
Br712      Br  0.81561939  0.75260673  0.59066015    -0.03900
Br713      Br  0.94314494  0.69949427  0.57451661     0.00600
Br714      Br  0.86554570  0.83542182  0.63319705    -0.03200
Br715      Br  0.90263221  0.77008841  0.70332334    -0.04100
Br716      Br  0.75229594  0.74243628  0.63907710    -0.00100
C717        C  0.06483202  0.78860102  0.58130874     0.01300
C718        C  0.06212869  0.76378143  0.60655585     0.04100
C719        C  0.08610806  0.76171600  0.63224356    -0.11900
C720        C  0.11257537  0.78476261  0.63350867     0.23400
C721        C  0.11196491  0.81269942  0.61208153    -0.12500
C722        C  0.08853447  0.81452885  0.58572174     0.04800
C723        C  0.14341310  0.77622120  0.65271947     0.27300
C724        C  0.15023589  0.78995364  0.68442514    -0.13200
C725        C  0.17909211  0.78025469  0.70235533     0.05400
C726        C  0.20105132  0.75533547  0.68954280    -0.09100
C727        C  0.19248895  0.74042850  0.65809465     0.06200
C728        C  0.16496281  0.75197599  0.63946042    -0.13500
Br729      Br  0.14311315  0.84850105  0.61940618    -0.05600
Br730      Br  0.02474736  0.73340047  0.60745190     0.00000
Br731      Br  0.18403762  0.79634750  0.74772854     0.00500
Br732      Br  0.15562723  0.73371279  0.59529129    -0.03900
Br733      Br  0.09044560  0.85199030  0.55541173     0.00600
Br734      Br  0.08333911  0.72693248  0.66559034    -0.03200
Br735      Br  0.11830924  0.82000501  0.70430607    -0.04100
Br736      Br  0.21400555  0.70178002  0.63992107    -0.00100
C737        C  0.69100745  0.73827622  0.20777401     0.01300
C738        C  0.67114906  0.70858327  0.20652927     0.04100
C739        C  0.64747340  0.70318289  0.18065898    -0.11900
C740        C  0.63809310  0.72958896  0.15925450     0.23400
C741        C  0.65367129  0.76075540  0.16368527    -0.12500
C742        C  0.68202248  0.76405702  0.18443781     0.04800
C743        C  0.61277155  0.72526686  0.13148841     0.27300
C744        C  0.62262241  0.72914303  0.09762678    -0.13200
C745        C  0.59870551  0.72978955  0.07161698     0.05400
C746        C  0.56480501  0.72386115  0.07847592    -0.09100
C747        C  0.55507940  0.71815073  0.11200635     0.06200
C748        C  0.57857319  0.72046773  0.13846394    -0.13500
Br749      Br  0.63483690  0.79960010  0.14183193    -0.05600
Br750      Br  0.66998675  0.67821945  0.24385233     0.00000
Br751      Br  0.61246177  0.73938163  0.02640201     0.00500
Br752      Br  0.56332475  0.71985610  0.18429168    -0.03900
Br753      Br  0.70804841  0.80340591  0.17604838     0.00600
Br754      Br  0.62727152  0.65963299  0.17541423    -0.03200
Br755      Br  0.66911503  0.73446819  0.08670330    -0.04100
Br756      Br  0.50931584  0.70780281  0.12180357    -0.00100
C757        C  0.79672583  0.69147413  0.26924022     0.01300
C758        C  0.79711384  0.67254468  0.29961658     0.04100
C759        C  0.82353045  0.65032674  0.30756680    -0.11900
C760        C  0.84921355  0.64401496  0.28441213     0.23400
C761        C  0.84824793  0.66068008  0.25340431    -0.12500
C762        C  0.82304621  0.68446186  0.24601957     0.04800
C763        C  0.87632110  0.61856487  0.29123582     0.27300
C764        C  0.90986209  0.62876053  0.29523765    -0.13200
C765        C  0.93595615  0.60490432  0.29475206     0.05400
C766        C  0.92882716  0.57030685  0.29364254    -0.09100
C767        C  0.89523491  0.56006621  0.29334693     0.06200
C768        C  0.86930495  0.58384304  0.29039809    -0.13500
Br769      Br  0.88199946  0.65001692  0.22036517    -0.05600
Br770      Br  0.75896273  0.67230434  0.32872241     0.00000
Br771      Br  0.98156131  0.61967703  0.29417858     0.00500
Br772      Br  0.82436580  0.56853447  0.28310850    -0.03900
Br773      Br  0.82751386  0.70624740  0.20361304     0.00600
Br774      Br  0.82434076  0.62796602  0.35044111    -0.03200
Br775      Br  0.92013858  0.67556814  0.30092542    -0.04100
Br776      Br  0.88467582  0.51330588  0.29778301    -0.00100
C777        C  0.69917812  0.92304970  0.43606100     0.01300
C778        C  0.69762859  0.88949175  0.44675031     0.04100
C779        C  0.70283701  0.86319562  0.42368263    -0.11900
C780        C  0.70589959  0.87021762  0.38911656     0.23400
C781        C  0.70308745  0.90376941  0.37818398    -0.12500
C782        C  0.70117660  0.93011772  0.40162668     0.04800
C783        C  0.71575423  0.84343880  0.36469154     0.27300
C784        C  0.74781534  0.84404366  0.35065415    -0.13200
C785        C  0.75660281  0.82171589  0.32460925     0.05400
C786        C  0.73454820  0.79523211  0.31486839    -0.09100
C787        C  0.70414706  0.79240314  0.33290168     0.06200
C788        C  0.69387010  0.81746758  0.35558836    -0.13500
Br789      Br  0.70368237  0.91388217  0.33108723    -0.05600
Br790      Br  0.68789005  0.87969226  0.49292827     0.00000
Br791      Br  0.79878324  0.83039021  0.30378943     0.00500
Br792      Br  0.64975006  0.81574165  0.37445163    -0.03900
Br793      Br  0.70285414  0.97602803  0.38676991     0.00600
Br794      Br  0.70887500  0.81818520  0.44006121    -0.03200
Br795      Br  0.78020158  0.87556054  0.36821181    -0.04100
Br796      Br  0.67925149  0.75111142  0.33190103    -0.00100
C797        C  0.74828148  0.69194483  0.20887954     0.01300
C798        C  0.75409629  0.70370850  0.17572881     0.04100
C799        C  0.75418503  0.68155290  0.14826114    -0.11900
C800        C  0.74865643  0.64724227  0.15317589     0.23400
C801        C  0.74299824  0.63499780  0.18560779    -0.12500
C802        C  0.74379996  0.65678516  0.21343380     0.04800
C803        C  0.75129689  0.62342878  0.12464481     0.27300
C804        C  0.72479440  0.61953591  0.10195498    -0.13200
C805        C  0.72703119  0.59613356  0.07568605     0.05400
C806        C  0.75496864  0.57466946  0.07329606    -0.09100
C807        C  0.78189500  0.57918068  0.09580463     0.06200
C808        C  0.78024642  0.60400173  0.12084702    -0.13500
Br809      Br  0.73357953  0.58777295  0.19142775    -0.05600
Br810      Br  0.76765062  0.74930859  0.16773463     0.00000
Br811      Br  0.69236567  0.59542819  0.04204268     0.00500
Br812      Br  0.81744964  0.61117075  0.15071662    -0.03900
Br813      Br  0.73870345  0.63625815  0.25659481     0.00600
Br814      Br  0.76296623  0.69793299  0.10361627    -0.03200
Br815      Br  0.68495192  0.64569003  0.10742869    -0.04100
Br816      Br  0.82055356  0.55055404  0.09432989    -0.00100
C817        C  0.93124617  0.77219803  0.42945725     0.01300
C818        C  0.92113148  0.80019513  0.40981392     0.04100
C819        C  0.89596285  0.79667362  0.38530151    -0.11900
C820        C  0.88212871  0.76503579  0.37835056     0.23400
C821        C  0.89361822  0.73687318  0.39590842    -0.12500
C822        C  0.91700031  0.74032872  0.42199795     0.04800
C823        C  0.85300514  0.76148709  0.35533973     0.27300
C824        C  0.82109373  0.75758771  0.36901952    -0.13200
C825        C  0.79346210  0.75098135  0.34819623     0.05400
C826        C  0.79682242  0.75123379  0.31250188    -0.09100
C827        C  0.82897265  0.75822071  0.29924001     0.06200
C828        C  0.85694125  0.76148268  0.32038359    -0.13500
Br829      Br  0.87614405  0.69328895  0.38451312    -0.05600
Br830      Br  0.94174838  0.84371796  0.41464076     0.00000
Br831      Br  0.75251117  0.74163550  0.37109924     0.00500
Br832      Br  0.90069269  0.76741209  0.30147663    -0.03900
Br833      Br  0.92676857  0.70068084  0.44806574     0.00600
Br834      Br  0.87939996  0.83547926  0.36177509    -0.03200
Br835      Br  0.81553573  0.76219371  0.41705127    -0.04100
Br836      Br  0.83403928  0.77141180  0.25309350    -0.00100
C837        C  0.42782159  0.93181527  0.23247127     0.01300
C838        C  0.41248906  0.91844121  0.20296638     0.04100
C839        C  0.38695281  0.89418662  0.20532238    -0.11900
C840        C  0.37580894  0.88300706  0.23672083     0.23400
C841        C  0.39036738  0.89607462  0.26597564    -0.12500
C842        C  0.41599723  0.92024748  0.26418245     0.04800
C843        C  0.34956841  0.85644619  0.23894989     0.27300
C844        C  0.31577328  0.86468846  0.23647290    -0.13200
C845        C  0.29106120  0.83952152  0.23824091     0.05400
C846        C  0.29952811  0.80511982  0.24314392    -0.09100
C847        C  0.33427653  0.79744886  0.24528798     0.06200
C848        C  0.35870476  0.82287822  0.24316418    -0.13500
Br849      Br  0.37536206  0.87979841  0.30887257    -0.05600
Br850      Br  0.42485384  0.93254002  0.15827880     0.00000
Br851      Br  0.24598099  0.85338533  0.23037357     0.00500
Br852      Br  0.40560837  0.81225209  0.24661444    -0.03900
Br853      Br  0.43403966  0.93616030  0.30630328     0.00600
Br854      Br  0.36709063  0.87541089  0.16530808    -0.03200
Br855      Br  0.30364945  0.91106611  0.23015272    -0.04100
Br856      Br  0.35116689  0.75326478  0.25244652    -0.00100
C857        C  0.58102142  0.06409766  0.22063203     0.01300
C858        C  0.60620529  0.05902324  0.24497952     0.04100
C859        C  0.63346466  0.08118018  0.24719217    -0.11900
C860        C  0.63641876  0.10795200  0.22451234     0.23400
C861        C  0.61446333  0.10954943  0.19698933    -0.12500
C862        C  0.58634074  0.08837748  0.19542913     0.04800
C863        C  0.65827526  0.13732088  0.23246831     0.27300
C864        C  0.64343125  0.16690092  0.24435029    -0.13200
C865        C  0.66252535  0.19608322  0.24971787     0.05400
C866        C  0.69772678  0.19567946  0.24555945    -0.09100
C867        C  0.71249753  0.16523301  0.23430140     0.06200
C868        C  0.69283786  0.13666031  0.22717202    -0.13500
Br869      Br  0.62313779  0.14133771  0.16180635    -0.05600
Br870      Br  0.60466188  0.02066011  0.27437119     0.00000
Br871      Br  0.63800561  0.23557257  0.26105026     0.00500
Br872      Br  0.71291758  0.09713449  0.20809091    -0.03900
Br873      Br  0.55443941  0.09460336  0.15993130     0.00600
Br874      Br  0.66692486  0.07470877  0.28110874    -0.03200
Br875      Br  0.59604592  0.16713405  0.25345162    -0.04100
Br876      Br  0.75897293  0.16411095  0.22201334    -0.00100
C877        C  0.69324621  0.79829739  0.25496846     0.01300
C878        C  0.70625386  0.83109591  0.24963377     0.04100
C879        C  0.68511239  0.85922912  0.24756073    -0.11900
C880        C  0.65040614  0.85503405  0.24761414     0.23400
C881        C  0.63705102  0.82262188  0.25024103    -0.12500
C882        C  0.65788697  0.79471861  0.25550858     0.04800
C883        C  0.62727456  0.88418154  0.24444268     0.27300
C884        C  0.60791499  0.89396682  0.27212138    -0.13200
C885        C  0.58115032  0.91637199  0.26812745     0.05400
C886        C  0.57494540  0.93164584  0.23651398    -0.09100
C887        C  0.59645500  0.92366738  0.20933414     0.06200
C888        C  0.62162404  0.89931930  0.21312373    -0.13500
Br889      Br  0.58947419  0.81660208  0.24521796    -0.05600
Br890      Br  0.75231156  0.83735668  0.23773252     0.00000
Br891      Br  0.55226184  0.92325084  0.30632076     0.00500
Br892      Br  0.64795106  0.88590007  0.17496734    -0.03900
Br893      Br  0.63559012  0.75293251  0.26341162     0.00600
Br894      Br  0.70376269  0.90355845  0.24282646    -0.03200
Br895      Br  0.61777338  0.87564863  0.31570831    -0.04100
Br896      Br  0.59325400  0.94631789  0.16667746    -0.00100
C897        C  0.69360342  0.25774357  0.80027329     0.01300
C898        C  0.68950218  0.23172447  0.82483603     0.04100
C899        C  0.66469760  0.23360691  0.85009797    -0.11900
C900        C  0.64302292  0.26098971  0.85200506     0.23400
C901        C  0.64596353  0.28651774  0.82803758    -0.12500
C902        C  0.67074952  0.28517272  0.80271144     0.04800
C903        C  0.61744642  0.26325622  0.87961900     0.27300
C904        C  0.58496921  0.25045946  0.87516709    -0.13200
C905        C  0.56088224  0.25353888  0.90095196     0.05400
C906        C  0.56840339  0.27123655  0.93082971    -0.09100
C907        C  0.60139809  0.28249868  0.93579773     0.06200
C908        C  0.62586926  0.27761939  0.91081981    -0.13500
Br909      Br  0.61450626  0.32304784  0.82956777    -0.05600
Br910      Br  0.71772198  0.19321931  0.82752710     0.00000
Br911      Br  0.51782390  0.23301904  0.89519139     0.00500
Br912      Br  0.67162072  0.28841702  0.92016529    -0.03900
Br913      Br  0.66910468  0.31977225  0.76934678     0.00600
Br914      Br  0.66008271  0.19856282  0.88327302    -0.03200
Br915      Br  0.57384765  0.22804272  0.83381767    -0.04100
Br916      Br  0.61390733  0.30251080  0.97796355    -0.00100
C917        C  0.79715823  0.31175183  0.74062380     0.01300
C918        C  0.79775582  0.33218611  0.71116441     0.04100
C919        C  0.82316840  0.35620282  0.70560490    -0.11900
C920        C  0.84809572  0.36173121  0.72961962     0.23400
C921        C  0.84747734  0.34314379  0.75934889    -0.12500
C922        C  0.82252190  0.31871161  0.76510700     0.04800
C923        C  0.87523034  0.38707911  0.72397922     0.27300
C924        C  0.90388765  0.37834310  0.70562997    -0.13200
C925        C  0.93035298  0.40130773  0.70184776     0.05400
C926        C  0.92891853  0.43326770  0.71706382    -0.09100
C927        C  0.90088333  0.44139210  0.73698468     0.06200
C928        C  0.87385218  0.41881145  0.73955934    -0.13500
Br929      Br  0.88257239  0.35087606  0.79185873    -0.05600
Br930      Br  0.76161826  0.33168974  0.67960970     0.00000
Br931      Br  0.97009116  0.38738635  0.67861133     0.00500
Br932      Br  0.83488567  0.43097232  0.76499139    -0.03900
Br933      Br  0.82700823  0.29506191  0.80653951     0.00600
Br934      Br  0.82397378  0.38231759  0.66491204    -0.03200
Br935      Br  0.90761116  0.33404471  0.68713792    -0.04100
Br936      Br  0.89934866  0.48302092  0.76162873    -0.00100
C937        C  0.74341327  0.20330494  0.69287680     0.01300
C938        C  0.71439488  0.20047510  0.67240048     0.04100
C939        C  0.71043270  0.17381162  0.64950276    -0.11900
C940        C  0.73641578  0.15108005  0.64391262     0.23400
C941        C  0.76631390  0.15490660  0.66157432    -0.12500
C942        C  0.76955075  0.17970236  0.68666723     0.04800
C943        C  0.73260209  0.12340889  0.61896329     0.27300
C944        C  0.72890290  0.08997238  0.62979251    -0.13200
C945        C  0.72603718  0.06385145  0.60616184     0.05400
C946        C  0.72469691  0.07105832  0.57164644    -0.09100
C947        C  0.72831711  0.10446653  0.56084925     0.06200
C948        C  0.73347365  0.13036454  0.58433665    -0.13500
Br949      Br  0.80300711  0.12537544  0.65093792    -0.05600
Br950      Br  0.68157847  0.23539917  0.67058442     0.00000
Br951      Br  0.72572835  0.01805070  0.62101203     0.00500
Br952      Br  0.74292729  0.17525277  0.56914112    -0.03900
Br953      Br  0.80950541  0.17721833  0.71288822     0.00600
Br954      Br  0.66929896  0.16865897  0.62488619    -0.03200
Br955      Br  0.72829643  0.07984653  0.67705331    -0.04100
Br956      Br  0.72542613  0.11502171  0.51394698    -0.00100
C957        C  0.75279624  0.42612508  0.93579858     0.01300
C958        C  0.72285956  0.40881347  0.92799715     0.04100
C959        C  0.72127187  0.38743235  0.89994982    -0.11900
C960        C  0.74997853  0.38057351  0.88116942     0.23400
C961        C  0.78003022  0.39675357  0.88915991    -0.12500
C962        C  0.78143085  0.41994633  0.91582369     0.04800
C963        C  0.74864326  0.35606112  0.85305884     0.27300
C964        C  0.75400963  0.32198011  0.85921099    -0.13200
C965        C  0.75369530  0.29868285  0.83262294     0.05400
C966        C  0.74770138  0.30900592  0.79891618    -0.09100
C967        C  0.74293587  0.34410079  0.79330385     0.06200
C968        C  0.74304441  0.36706702  0.82025890    -0.13500
Br969      Br  0.81903987  0.38774853  0.86240240    -0.05600
Br970      Br  0.68394745  0.41206687  0.95626051     0.00000
Br971      Br  0.76777841  0.25388819  0.84304440     0.00500
Br972      Br  0.73499970  0.41429826  0.81286983    -0.03900
Br973      Br  0.82260542  0.44400824  0.92283147     0.00600
Br974      Br  0.67927949  0.36879885  0.88581744    -0.03200
Br975      Br  0.76341152  0.30770509  0.90450970    -0.04100
Br976      Br  0.73464114  0.36302104  0.74995630    -0.00100
C977        C  0.69435124  0.20175519  0.74857857     0.01300
C978        C  0.65925988  0.20724885  0.74494292     0.04100
C979        C  0.63630930  0.18028176  0.74554627    -0.11900
C980        C  0.64701423  0.14740381  0.75138865     0.23400
C981        C  0.68107915  0.14134829  0.75577243    -0.12500
C982        C  0.70451939  0.16779388  0.75375052     0.04800
C983        C  0.62219471  0.11929551  0.75375920     0.27300
C984        C  0.60437762  0.11388164  0.78364557    -0.13200
C985        C  0.57962644  0.08871125  0.78546871     0.05400
C986        C  0.57341334  0.06725471  0.75765856    -0.09100
C987        C  0.59293848  0.07170143  0.72829338     0.06200
C988        C  0.61623383  0.09815324  0.72612691    -0.13500
Br989      Br  0.69516148  0.09632594  0.76634563    -0.05600
Br990      Br  0.64012131  0.25060292  0.73764113     0.00000
Br991      Br  0.55367170  0.08551073  0.82603838     0.00500
Br992      Br  0.63991944  0.10587739  0.68491238    -0.03900
Br993      Br  0.74999128  0.15629352  0.76296796     0.00600
Br994      Br  0.58936979  0.18784778  0.73778340    -0.03200
Br995      Br  0.61430383  0.14122807  0.82228523    -0.04100
Br996      Br  0.59017613  0.04051299  0.69126616    -0.00100
C997        C  0.31092470  0.26869659  0.20218418     0.01300
C998        C  0.32919892  0.29877327  0.20815397     0.04100
C999        C  0.35295287  0.31082702  0.18487319    -0.11900
C1000       C  0.36043166  0.29243521  0.15580217     0.23400
C1001       C  0.34453832  0.26166384  0.15042949    -0.12500
C1002       C  0.32010246  0.24973046  0.17293779     0.04800
C1003       C  0.38728923  0.30299910  0.13198267     0.27300
C1004       C  0.37944341  0.31930298  0.10158763    -0.13200
C1005       C  0.40343043  0.32211261  0.07581336     0.05400
C1006       C  0.43489226  0.30700876  0.07959212    -0.09100
C1007       C  0.44381175  0.29448974  0.11140196     0.06200
C1008       C  0.42010561  0.29195114  0.13726388    -0.13500
Br1009     Br  0.35771499  0.23532740  0.11164520    -0.05600
Br1010     Br  0.32619124  0.32108474  0.25090122     0.00000
Br1011     Br  0.39313158  0.34673130  0.03568164     0.00500
Br1012     Br  0.43183612  0.27076064  0.17906145    -0.03900
Br1013     Br  0.30189077  0.20704127  0.16078220     0.00600
Br1014     Br  0.37658823  0.35202592  0.19330268    -0.03200
Br1015     Br  0.33504206  0.33520123  0.09415364    -0.04100
Br1016     Br  0.48922635  0.28317071  0.12045617    -0.00100
C1017       C  0.07260932  0.42759880  0.28070325     0.01300
C1018       C  0.10638138  0.43582076  0.28573900     0.04100
C1019       C  0.13148508  0.41143744  0.28111465    -0.11900
C1020       C  0.12300610  0.37757620  0.27493275     0.23400
C1021       C  0.08896747  0.36911880  0.27133520    -0.12500
C1022       C  0.06416517  0.39420823  0.27276649     0.04800
C1023       C  0.14969424  0.35128760  0.27077483     0.27300
C1024       C  0.15504970  0.33614319  0.23945011    -0.13200
C1025       C  0.17758902  0.30915628  0.23602255     0.05400
C1026       C  0.20093484  0.30124548  0.26193073    -0.09100
C1027       C  0.19733919  0.31963967  0.29244159     0.06200
C1028       C  0.17022253  0.34168199  0.29769086    -0.13500
Br1029     Br  0.07609458  0.32305478  0.26432922    -0.05600
Br1030     Br  0.11829794  0.48057751  0.29926319     0.00000
Br1031     Br  0.17208672  0.28278928  0.19638059     0.00500
Br1032     Br  0.16181856  0.35956132  0.34186821    -0.03900
Br1033     Br  0.01853608  0.38291644  0.26321244     0.00600
Br1034     Br  0.17754105  0.42502688  0.28102997    -0.03200
Br1035     Br  0.13239880  0.35377347  0.20049835    -0.04100
Br1036     Br  0.23280588  0.32198218  0.32455070    -0.00100
C1037       C  0.27319746  0.20188257  0.30409838     0.01300
C1038       C  0.30050094  0.20910687  0.32577677     0.04100
C1039       C  0.30998900  0.18640623  0.35132132    -0.11900
C1040       C  0.29517197  0.15452862  0.35328453     0.23400
C1041       C  0.27038658  0.14593144  0.32990883    -0.12500
C1042       C  0.25759440  0.17004416  0.30758269     0.04800
C1043       C  0.30067993  0.13173634  0.38267151     0.27300
C1044       C  0.32905634  0.11124755  0.38546728    -0.13200
C1045       C  0.33033658  0.08539077  0.40976238     0.05400
C1046       C  0.30232584  0.07854026  0.43045328    -0.09100
C1047       C  0.27405761  0.09988894  0.42755303     0.06200
C1048       C  0.27459212  0.12750775  0.40567777    -0.13500
Br1049     Br  0.25295756  0.10065895  0.32964088    -0.05600
Br1050     Br  0.32138943  0.25271500  0.32500622     0.00000
Br1051     Br  0.37000996  0.05831660  0.41221451     0.00500
Br1052     Br  0.23940148  0.16038299  0.40700775    -0.03900
Br1053     Br  0.21642226  0.15868304  0.28628496     0.00600
Br1054     Br  0.34122261  0.19998741  0.38545771    -0.03200
Br1055     Br  0.36625444  0.11871941  0.35600292    -0.04100
Br1056     Br  0.23292602  0.09182276  0.45148179    -0.00100
C1057       C  0.23985809  0.43180893  0.07212256     0.01300
C1058       C  0.21329476  0.40898042  0.07778055     0.04100
C1059       C  0.21499676  0.38543669  0.10402157    -0.11900
C1060       C  0.24392453  0.38262100  0.12370517     0.23400
C1061       C  0.27075295  0.40467468  0.11789588    -0.12500
C1062       C  0.26883413  0.42911559  0.09239058     0.04800
C1063       C  0.24569543  0.35702886  0.15103809     0.27300
C1064       C  0.24422725  0.36704228  0.18476762    -0.13200
C1065       C  0.24862826  0.34346669  0.21073077     0.05400
C1066       C  0.24957876  0.30842343  0.20357613    -0.09100
C1067       C  0.24678990  0.29870544  0.16933526     0.06200
C1068       C  0.24744213  0.32265288  0.14344831    -0.13500
Br1069     Br  0.30989295  0.40228317  0.14598801    -0.05600
Br1070     Br  0.17496390  0.40741144  0.04852588     0.00000
Br1071     Br  0.25490453  0.36166098  0.25474230     0.00500
Br1072     Br  0.24981408  0.30804539  0.09731316    -0.03900
Br1073     Br  0.30618818  0.45910264  0.08672203     0.00600
Br1074     Br  0.17685124  0.35772827  0.11408991    -0.03200
Br1075     Br  0.23495346  0.41345755  0.19520493    -0.04100
Br1076     Br  0.23663042  0.25314420  0.15707407    -0.00100
C1077       C  0.31052818  0.20293375  0.24171469     0.01300
C1078       C  0.29795025  0.17211522  0.22889630     0.04100
C1079       C  0.31953857  0.14520509  0.22127423    -0.11900
C1080       C  0.35376847  0.14755014  0.22827736     0.23400
C1081       C  0.36652013  0.17770326  0.24132079    -0.12500
C1082       C  0.34555377  0.20558190  0.24662149     0.04800
C1083       C  0.37674284  0.11857326  0.22219807     0.27300
C1084       C  0.37667924  0.09104683  0.24420956    -0.13200
C1085       C  0.40169321  0.06643230  0.24205569     0.05400
C1086       C  0.42772883  0.06939643  0.21830677    -0.09100
C1087       C  0.42590082  0.09524310  0.19415602     0.06200
C1088       C  0.40036065  0.11954861  0.19600665    -0.13500
Br1089     Br  0.41341368  0.18060746  0.25212670    -0.05600
Br1090     Br  0.25217533  0.16893169  0.21434445     0.00000
Br1091     Br  0.39883130  0.02760926  0.27078744     0.00500
Br1092     Br  0.39774605  0.15465468  0.16292059    -0.03900
Br1093     Br  0.36717614  0.24681905  0.25819597     0.00600
Br1094     Br  0.30273490  0.10579940  0.19881050    -0.03200
Br1095     Br  0.34232394  0.08715033  0.27768473    -0.04100
Br1096     Br  0.45885941  0.09859945  0.15928809    -0.00100
C1097       C  0.93583149  0.23512234  0.42636287     0.01300
C1098       C  0.92882273  0.20717328  0.40531222     0.04100
C1099       C  0.90145845  0.20778077  0.38318936    -0.11900
C1100       C  0.88226288  0.23699448  0.37956383     0.23400
C1101       C  0.88977923  0.26532246  0.39937234    -0.12500
C1102       C  0.91614466  0.26440551  0.42276845     0.04800
C1103       C  0.85326489  0.23744536  0.35601522     0.27300
C1104       C  0.85801902  0.23739404  0.32114786    -0.13200
C1105       C  0.83047467  0.23589040  0.29931543     0.05400
C1106       C  0.79750413  0.24083782  0.31122520    -0.09100
C1107       C  0.79321296  0.24075022  0.34694164     0.06200
C1108       C  0.82074563  0.23681259  0.36864664    -0.13500
Br1109     Br  0.86245858  0.30495586  0.39578380    -0.05600
Br1110     Br  0.95740013  0.16828640  0.40455360     0.00000
Br1111     Br  0.83845309  0.22079074  0.25429492     0.00500
Br1112     Br  0.81437444  0.23066287  0.41643658    -0.03900
Br1113     Br  0.92337960  0.30348842  0.45052117     0.00600
Br1114     Br  0.88875255  0.16760874  0.35926176    -0.03200
Br1115     Br  0.90248473  0.23941563  0.30310261    -0.04100
Br1116     Br  0.75187666  0.24875562  0.36926408    -0.00100
C1117       C  0.07012758  0.22064099  0.57778803     0.01300
C1118       C  0.06624764  0.24337847  0.60480957     0.04100
C1119       C  0.08946807  0.24403893  0.63137407    -0.11900
C1120       C  0.11688973  0.22213638  0.63127450     0.23400
C1121       C  0.11883173  0.19708844  0.60637622    -0.12500
C1122       C  0.09561974  0.19627219  0.57976571     0.04800
C1123       C  0.14546394  0.22765799  0.65480049     0.27300
C1124       C  0.17504394  0.24171843  0.64243539    -0.13200
C1125       C  0.20352537  0.24419554  0.66294648     0.05400
C1126       C  0.20164395  0.23723239  0.69789560    -0.09100
C1127       C  0.17108526  0.22419698  0.71037996     0.06200
C1128       C  0.14396026  0.21790574  0.68861851    -0.13500
Br1129     Br  0.15393118  0.16418794  0.60874882    -0.05600
Br1130     Br  0.02809757  0.27266288  0.60669380     0.00000
Br1131     Br  0.24439872  0.25385635  0.64033339     0.00500
Br1132     Br  0.10532589  0.19406241  0.70448337    -0.03900
Br1133     Br  0.10014704  0.16244836  0.54563182     0.00600
Br1134     Br  0.08365751  0.27481628  0.66816247    -0.03200
Br1135     Br  0.17625079  0.25799285  0.59675683    -0.04100
Br1136     Br  0.16769388  0.20932690  0.75632034    -0.00100
C1137       C  0.93080813  0.23800736  0.56880639     0.01300
C1138       C  0.91857098  0.21009554  0.58748274     0.04100
C1139       C  0.89311223  0.21438666  0.61157990    -0.11900
C1140       C  0.87948783  0.24619009  0.61810306     0.23400
C1141       C  0.89074194  0.27378470  0.59928725    -0.12500
C1142       C  0.91573224  0.26980498  0.57462699     0.04800
C1143       C  0.85210711  0.25021379  0.64355480     0.27300
C1144       C  0.81891555  0.25297403  0.63309058    -0.13200
C1145       C  0.79278113  0.25615627  0.65670052     0.05400
C1146       C  0.79897088  0.25499052  0.69213519    -0.09100
C1147       C  0.83303939  0.25141803  0.70198844     0.06200
C1148       C  0.85904473  0.24970600  0.67806448    -0.13500
Br1149     Br  0.87092032  0.31720306  0.60681426    -0.05600
Br1150     Br  0.93561406  0.16527130  0.58107126     0.00000
Br1151     Br  0.74967079  0.26358032  0.63768497     0.00500
Br1152     Br  0.90470688  0.24444548  0.69239237    -0.03900
Br1153     Br  0.92670671  0.30871340  0.54792639     0.00600
Br1154     Br  0.87600718  0.17615880  0.63555356    -0.03200
Br1155     Br  0.80948707  0.25142968  0.58545181    -0.04100
Br1156     Br  0.84513166  0.24222024  0.74767872    -0.00100
C1157       C  0.07414108  0.22064026  0.42534161     0.01300
C1158       C  0.07365323  0.24611326  0.40058541     0.04100
C1159       C  0.09837678  0.24745481  0.37551138    -0.11900
C1160       C  0.12252334  0.22208684  0.37298256     0.23400
C1161       C  0.12090156  0.19469360  0.39525953    -0.12500
C1162       C  0.09757423  0.19437328  0.42185810     0.04800
C1163       C  0.15165039  0.22643401  0.34971031     0.27300
C1164       C  0.14888231  0.22075033  0.31502866    -0.13200
C1165       C  0.17577060  0.22806144  0.29321563     0.05400
C1166       C  0.20683618  0.24008748  0.30566320    -0.09100
C1167       C  0.20978129  0.24308436  0.34140578     0.06200
C1168       C  0.18212657  0.23765078  0.36265396    -0.13500
Br1169     Br  0.15123668  0.15782629  0.38945805    -0.05600
Br1170     Br  0.03796882  0.27843613  0.39919068     0.00000
Br1171     Br  0.17060851  0.21716224  0.24648683     0.00500
Br1172     Br  0.18527057  0.24656572  0.41038616    -0.03900
Br1173     Br  0.09966811  0.15885807  0.45437206     0.00600
Br1174     Br  0.10013275  0.28501197  0.34529713    -0.03200
Br1175     Br  0.10814975  0.20186314  0.29773710    -0.04100
Br1176     Br  0.25020541  0.25409843  0.36434880    -0.00100
loop_ 
_geom_bond_atom_site_label_1 
_geom_bond_atom_site_label_2 
_geom_bond_distance 
_geom_bond_site_symmetry_2 
_ccdc_geom_bond_type 
O1            V9   1.924       .  S
O1           C11   1.269       .  A
O2            V9   1.914   1_655  S
O2           C12   1.263       .  A
O3            V9   1.901   1_655  S
O3           C13   1.261       .  A
O4            V9   1.914       .  S
O4           C14   1.266       .  A
O5           V10   1.908       .  S
O5           C14   1.267       .  A
O6           V10   1.910   1_655  S
O6           C13   1.269       .  A
O7           V10   1.906   1_655  S
O7           C12   1.269       .  A
O8           V10   1.904       .  S
O8           C11   1.266       .  A
V9           V10   2.078       .  T
C11        C1157   1.506       .  S
C12        C1137   1.519       .  S
C13        C1097   1.503       .  S
C14        C1117   1.499       .  S
C15        C1077   1.527       .  S
C15          C16   1.446       .  A
C15          C20   1.440       .  A
C16        C1037   1.529       .  S
C16          C17   1.452       .  A
C17        C1166   1.545       .  S
C17          C18   1.461       .  A
C18        C1026   1.551       .  S
C18          C19   1.459       .  A
C19        C1066   1.532       .  S
C19          C20   1.454       .  A
C20         C997   1.548       .  S
C21        C1146   1.556       .  S
C21          C22   1.460       .  A
C21          C26   1.460       .  A
C22         C917   1.558       .  S
C22          C23   1.464       .  A
C23         C966   1.535       .  S
C23          C24   1.466       .  A
C24         C897   1.563       .  S
C24          C25   1.457       .  A
C25         C977   1.553       .  S
C25          C26   1.464       .  A
C26         C937   1.540       .  S
O27          V35   1.898       .  S
O27          C37   1.264       .  A
O28          V35   1.896   1_565  S
O28          C38   1.262       .  A
O29          V35   1.903       .  S
O29          C39   1.266       .  A
O30          V35   1.910   1_565  S
O30          C40   1.265       .  A
O31          V36   1.903       .  S
O31          C40   1.265       .  A
O32          V36   1.912   1_545  S
O32          C39   1.267       .  A
O33          V36   1.911       .  S
O33          C38   1.267       .  A
O34          V36   1.921   1_545  S
O34          C37   1.269       .  A
V35          V36   2.078   1_545  T
C37        C1086   1.499       .  S
C38         C886   1.505       .  S
C39         C857   1.495       .  S
C40         C837   1.517       .  S
C41         C877   1.532       .  S
C41          C42   1.445       .  A
C41          C46   1.449       .  A
C42         C737   1.556       .  S
C42          C43   1.460       .  A
C43         C797   1.521       .  S
C43          C44   1.457       .  A
C44         C757   1.558       .  S
C44          C45   1.453       .  A
C45         C826   1.530       .  S
C45          C46   1.447       .  A
C46         C786   1.535       .  S
O47          V55   1.895   1_655  S
O47          C57   1.262       .  A
O48          V55   1.896       .  S
O48          C58   1.263       .  A
O49          V55   1.901       .  S
O49          C59   1.266       .  A
O50          V55   1.897   1_655  S
O50          C60   1.263       .  A
O51          V56   1.910       .  S
O51          C60   1.266       .  A
O52          V56   1.913   1_455  S
O52          C59   1.267       .  A
O53          V56   1.919   1_455  S
O53          C58   1.269       .  A
O54          V56   1.909       .  S
O54          C57   1.266       .  A
V55          V56   2.078   1_455  T
C57         C697   1.512       .  S
C58         C686   1.489       .  S
C59         C717   1.499       .  S
C60         C817   1.508       .  S
C61         C597   1.537       .  S
C61          C62   1.444       .  A
C61          C66   1.452       .  A
C62         C726   1.531       .  S
C62          C63   1.450       .  A
C63         C617   1.545       .  S
C63          C64   1.456       .  A
C64         C657   1.542       .  S
C64          C65   1.466       .  A
C65         C586   1.555       .  S
C65          C66   1.460       .  A
C66         C646   1.538       .  S
O67          V75   1.901   1_545  S
O67          C77   1.265       .  A
O68          V75   1.906       .  S
O68          C78   1.266       .  A
O69          V75   1.905       .  S
O69          C79   1.265       .  A
O70          V75   1.908   1_545  S
O70          C80   1.266       .  A
O71          V76   1.916   1_545  S
O71          C80   1.268       .  A
O72          V76   1.913       .  S
O72          C79   1.267       .  A
O73          V76   1.899       .  S
O73          C78   1.263       .  A
O74          V76   1.906   1_545  S
O74          C77   1.266       .  A
V75          V76   2.072       .  T
C77         C537   1.503       .  S
C78         C557   1.503       .  S
C79         C666   1.486       .  S
C80         C986   1.510       .  S
O81          V89   1.901       .  S
O81          C91   1.264       .  A
O82          V89   1.906   1_556  S
O82          C92   1.265       .  A
O83          V89   1.905       .  S
O83          C93   1.266       .  A
O84          V89   1.919   1_556  S
O84          C94   1.269       .  A
O85          V90   1.901       .  S
O85          C94   1.265       .  A
O86          V90   1.908   1_554  S
O86          C93   1.265       .  A
O87          V90   1.903       .  S
O87          C92   1.266       .  A
O88          V90   1.911   1_554  S
O88          C91   1.267       .  A
V89          V90   2.077   1_554  T
C91         C526   1.511       .  S
C92         C497   1.505       .  S
C93        C1057   1.504       .  S
C94         C637   1.500       .  S
O95         V103   1.896       .  S
O95         C105   1.264       .  A
O96         V103   1.895   1_556  S
O96         C106   1.263       .  A
O97         V103   1.904       .  S
O97         C107   1.266       .  A
O98         V103   1.906   1_556  S
O98         C108   1.267       .  A
O99         V104   1.898   1_556  S
O99         C108   1.264       .  A
O100        V104   1.895       .  S
O100        C107   1.264       .  A
O101        V104   1.900   1_556  S
O101        C106   1.265       .  A
O102        V104   1.904       .  S
O102        C105   1.266       .  A
V103        V104   2.067       .  T
C105        C457   1.491       .  S
C106        C486   1.488       .  S
C107        C806   1.487       .  S
C108        C957   1.498       .  S
C109        C706   1.532       .  S
C109        C110   1.454       .  A
C109        C114   1.453       .  A
C110        C417   1.560       .  S
C110        C111   1.454       .  A
C111        C477   1.522       .  S
C111        C112   1.460       .  A
C112        C397   1.559       .  S
C112        C113   1.453       .  A
C113        C566   1.538       .  S
C113        C114   1.457       .  A
C114        C437   1.545       .  S
O115        V123   1.901       .  S
O115        C125   1.265       .  A
O116        V123   1.900   1_545  S
O116        C126   1.264       .  A
O117        V123   1.908   1_545  S
O117        C127   1.265       .  A
O118        V123   1.902       .  S
O118        C128   1.264       .  A
O119        V124   1.912       .  S
O119        C128   1.266       .  A
O120        V124   1.910   1_545  S
O120        C127   1.266       .  A
O121        V124   1.916   1_545  S
O121        C126   1.268       .  A
O122        V124   1.914       .  S
O122        C125   1.268       .  A
V123        V124   2.081       .  T
C125        C446   1.496       .  S
C126        C377   1.504       .  S
C127        C946   1.484       .  S
C128        C777   1.480       .  S
C129        C357   1.554       .  S
C129        C130   1.459       .  A
C129        C134   1.460       .  A
C130       C1106   1.540       .  S
C130        C131   1.450       .  A
C131        C386   1.529       .  S
C131        C132   1.446       .  A
C132        C866   1.529       .  S
C132        C133   1.443       .  A
C133        C337   1.549       .  S
C133        C134   1.457       .  A
C134        C466   1.531       .  S
O135        V143   1.922   1_655  S
O135        C145   1.268       .  A
O136        V143   1.918       .  S
O136        C146   1.267       .  A
O137        V143   1.915       .  S
O137        C147   1.268       .  A
O138        V143   1.915   1_655  S
O138        C148   1.268       .  A
O139        V144   1.908   1_655  S
O139        C148   1.266       .  A
O140        V144   1.908       .  S
O140        C147   1.267       .  A
O141        V144   1.917       .  S
O141        C146   1.267       .  A
O142        V144   1.919   1_655  S
O142        C145   1.268       .  A
V143        V144   2.082       .  T
C145        C766   1.501       .  S
C146       C1017   1.496       .  S
C147        C317   1.505       .  S
C148        C366   1.504       .  S
C149        C846   1.544       .  S
C149        C150   1.457       .  A
C149        C154   1.458       .  A
C150        C297   1.544       .  S
C150        C151   1.448       .  A
C151        C677   1.532       .  S
C151        C152   1.451       .  A
C152        C326   1.540       .  S
C152        C153   1.455       .  A
C153        C517   1.545       .  S
C153        C154   1.462       .  A
C154        C286   1.548       .  S
O155        V163   1.915       .  S
O155        C165   1.268       .  A
O156        V163   1.913   1_565  S
O156        C166   1.268       .  A
O157        V163   1.900   1_565  S
O157        C167   1.264       .  A
O158        V163   1.896       .  S
O158        C168   1.262       .  A
O159        V164   1.924       .  S
O159        C168   1.271       .  A
O160        V164   1.925   1_565  S
O160        C167   1.272       .  A
O161        V164   1.911   1_565  S
O161        C166   1.265       .  A
O162        V164   1.913       .  S
O162        C165   1.266       .  A
V163        V164   2.075       .  T
C165        C257   1.495       .  S
C166        C306   1.488       .  S
C167        C626   1.510       .  S
C168       C1046   1.510       .  S
C169        C246   1.529       .  S
C169        C170   1.446       .  A
C169        C174   1.447       .  A
C170       C1126   1.527       .  S
C170        C171   1.443       .  A
C171        C266   1.542       .  S
C171        C172   1.453       .  A
C172        C546   1.532       .  S
C172        C173   1.452       .  A
C173        C217   1.542       .  S
C173        C174   1.455       .  A
C174        C506   1.539       .  S
O175        V183   1.923   1_655  S
O175        C185   1.269       .  A
O176        V183   1.916       .  S
O176        C186   1.270       .  A
O177        V183   1.915   1_655  S
O177        C187   1.269       .  A
O178        V183   1.922       .  S
O178        C188   1.269       .  A
O179        V184   1.908       .  S
O179        C188   1.267       .  A
O180        V184   1.909   1_655  S
O180        C187   1.265       .  A
O181        V184   1.908       .  S
O181        C186   1.263       .  A
O182        V184   1.914   1_655  S
O182        C185   1.267       .  A
V183        V184   2.080       .  T
C185        C426   1.501       .  S
C186        C237   1.519       .  S
C187        C926   1.498       .  S
C188        C606   1.504       .  S
O189        V197   1.918   1_556  S
O189        C199   1.268       .  A
O190        V197   1.913       .  S
O190        C200   1.268       .  A
O191        V197   1.908   1_556  S
O191        C201   1.266       .  A
O192        V197   1.904       .  S
O192        C202   1.265       .  A
O193        V198   1.917       .  S
O193        C202   1.268       .  A
O194        V198   1.920   1_556  S
O194        C201   1.269       .  A
O195        V198   1.920       .  S
O195        C200   1.267       .  A
O196        V198   1.919   1_556  S
O196        C199   1.269       .  A
V197        V198   2.079       .  T
C199        C906   1.504       .  S
C200       C1006   1.497       .  S
C201        C226   1.495       .  S
C202        C346   1.515       .  S
O203        V211   1.915       .  S
O203        C213   1.268       .  A
O204        V211   1.920   1_556  S
O204        C214   1.268       .  A
O205        V211   1.919       .  S
O205        C215   1.268       .  A
O206        V211   1.915   1_556  S
O206        C216   1.266       .  A
O207        V212   1.917   1_556  S
O207        C216   1.269       .  A
O208        V212   1.919       .  S
O208        C215   1.269       .  A
O209        V212   1.903   1_556  S
O209        C214   1.265       .  A
O210        V212   1.910       .  S
O210        C213   1.266       .  A
V211        V212   2.080       .  T
C213        C277   1.498       .  S
C214        C406   1.497       .  S
C215        C746   1.500       .  S
C216        C577   1.529       .  S
C217        C218   1.430       .  A
C217        C222   1.426       .  A
C218        C219   1.414       .  A
C218       Br230   1.914       .  S
C219        C220   1.407       .  A
C219       Br234   1.939       .  S
C220        C223   1.508       .  S
C220        C221   1.411       .  A
C221        C222   1.416       .  A
C221       Br229   1.933       .  S
C222       Br233   1.924       .  S
C223        C224   1.417       .  A
C223        C228   1.415       .  A
C224        C225   1.413       .  A
C224       Br235   1.934       .  S
C225        C226   1.412       .  A
C225       Br231   1.928       .  S
C226        C227   1.412       .  A
C227        C228   1.415       .  A
C227       Br236   1.927       .  S
C228       Br232   1.931       .  S
C237        C238   1.429       .  A
C237        C242   1.428       .  A
C238        C239   1.411       .  A
C238       Br250   1.936       .  S
C239        C240   1.408       .  A
C239       Br254   1.937       .  S
C240        C243   1.505       .  S
C240        C241   1.409       .  A
C241        C242   1.419       .  A
C241       Br249   1.931       .  S
C242       Br253   1.934       .  S
C243        C244   1.409       .  A
C243        C248   1.407       .  A
C244        C245   1.418       .  A
C244       Br255   1.930       .  S
C245        C246   1.426       .  A
C245       Br251   1.933       .  S
C246        C247   1.424       .  A
C247        C248   1.410       .  A
C247       Br256   1.914       .  S
C248       Br252   1.938       .  S
C257        C258   1.412       .  A
C257        C262   1.413       .  A
C258        C259   1.414       .  A
C258       Br270   1.926       .  S
C259        C260   1.413       .  A
C259       Br274   1.925       .  S
C260        C263   1.499       .  S
C260        C261   1.409       .  A
C261        C262   1.411       .  A
C261       Br269   1.932       .  S
C262       Br273   1.919       .  S
C263        C264   1.401       .  A
C263        C268   1.406       .  A
C264        C265   1.414       .  A
C264       Br275   1.944       .  S
C265        C266   1.435       .  A
C265       Br271   1.913       .  S
C266        C267   1.426       .  A
C267        C268   1.416       .  A
C267       Br276   1.928       .  S
C268       Br272   1.930       .  S
C277        C278   1.416       .  A
C277        C282   1.416       .  A
C278        C279   1.415       .  A
C278       Br290   1.930       .  S
C279        C280   1.410       .  A
C279       Br294   1.927       .  S
C280        C283   1.503       .  S
C280        C281   1.411       .  A
C281        C282   1.413       .  A
C281       Br289   1.927       .  S
C282       Br293   1.931       .  S
C283        C284   1.402       .  A
C283        C288   1.404       .  A
C284        C285   1.417       .  A
C284       Br295   1.937       .  S
C285        C286   1.434       .  A
C285       Br291   1.915       .  S
C286        C287   1.430       .  A
C287        C288   1.417       .  A
C287       Br296   1.923       .  S
C288       Br292   1.933       .  S
C297        C298   1.438       .  A
C297        C302   1.426       .  A
C298        C299   1.415       .  A
C298       Br310   1.917       .  S
C299        C300   1.402       .  A
C299       Br314   1.942       .  S
C300        C303   1.500       .  S
C300        C301   1.406       .  A
C301        C302   1.415       .  A
C301       Br309   1.931       .  S
C302       Br313   1.926       .  S
C303        C304   1.416       .  A
C303        C308   1.411       .  A
C304        C305   1.413       .  A
C304       Br315   1.927       .  S
C305        C306   1.409       .  A
C305       Br311   1.929       .  S
C306        C307   1.410       .  A
C307        C308   1.410       .  A
C307       Br316   1.922       .  S
C308       Br312   1.931       .  S
C317        C318   1.419       .  A
C317        C322   1.420       .  A
C318        C319   1.412       .  A
C318       Br330   1.934       .  S
C319        C320   1.411       .  A
C319       Br334   1.928       .  S
C320        C323   1.509       .  S
C320        C321   1.412       .  A
C321        C322   1.418       .  A
C321       Br329   1.925       .  S
C322       Br333   1.931       .  S
C323        C324   1.408       .  A
C323        C328   1.407       .  A
C324        C325   1.420       .  A
C324       Br335   1.931       .  S
C325        C326   1.429       .  A
C325       Br331   1.931       .  S
C326        C327   1.428       .  A
C327        C328   1.415       .  A
C327       Br336   1.913       .  S
C328       Br332   1.939       .  S
C337        C338   1.429       .  A
C337        C342   1.437       .  A
C338        C339   1.421       .  A
C338       Br350   1.925       .  S
C339        C340   1.406       .  A
C339       Br354   1.930       .  S
C340        C343   1.505       .  S
C340        C341   1.401       .  A
C341        C342   1.413       .  A
C341       Br349   1.941       .  S
C342       Br353   1.918       .  S
C343        C344   1.407       .  A
C343        C348   1.407       .  A
C344        C345   1.413       .  A
C344       Br355   1.931       .  S
C345        C346   1.429       .  A
C345       Br351   1.938       .  S
C346        C347   1.426       .  A
C347        C348   1.417       .  A
C347       Br356   1.934       .  S
C348       Br352   1.922       .  S
C357        C358   1.432       .  A
C357        C362   1.433       .  A
C358        C359   1.421       .  A
C358       Br370   1.924       .  S
C359        C360   1.407       .  A
C359       Br374   1.933       .  S
C360        C363   1.510       .  S
C360        C361   1.403       .  A
C361        C362   1.417       .  A
C361       Br369   1.940       .  S
C362       Br373   1.909       .  S
C363        C364   1.412       .  A
C363        C368   1.411       .  A
C364        C365   1.414       .  A
C364       Br375   1.928       .  S
C365        C366   1.420       .  A
C365       Br371   1.934       .  S
C366        C367   1.419       .  A
C367        C368   1.416       .  A
C367       Br376   1.933       .  S
C368       Br372   1.925       .  S
C377        C378   1.422       .  A
C377        C382   1.422       .  A
C378        C379   1.409       .  A
C378       Br390   1.937       .  S
C379        C380   1.412       .  A
C379       Br394   1.937       .  S
C380        C383   1.503       .  S
C380        C381   1.412       .  A
C381        C382   1.417       .  A
C381       Br389   1.930       .  S
C382       Br393   1.933       .  S
C383        C384   1.409       .  A
C383        C388   1.405       .  A
C384        C385   1.418       .  A
C384       Br395   1.930       .  S
C385        C386   1.426       .  A
C385       Br391   1.932       .  S
C386        C387   1.424       .  A
C387        C388   1.407       .  A
C387       Br396   1.915       .  S
C388       Br392   1.935       .  S
C397        C398   1.437       .  A
C397        C402   1.434       .  A
C398        C399   1.418       .  A
C398       Br410   1.912       .  S
C399        C400   1.401       .  A
C399       Br414   1.940       .  S
C400        C403   1.506       .  S
C400        C401   1.404       .  A
C401        C402   1.421       .  A
C401       Br409   1.932       .  S
C402       Br413   1.924       .  S
C403        C404   1.413       .  A
C403        C408   1.411       .  A
C404        C405   1.418       .  A
C404       Br415   1.926       .  S
C405        C406   1.415       .  A
C405       Br411   1.929       .  S
C406        C407   1.415       .  A
C407        C408   1.411       .  A
C407       Br416   1.933       .  S
C408       Br412   1.927       .  S
C417        C418   1.438       .  A
C417        C422   1.430       .  A
C418        C419   1.420       .  A
C418       Br430   1.916       .  S
C419        C420   1.406       .  A
C419       Br434   1.940       .  S
C420        C423   1.518       .  S
C420        C421   1.411       .  A
C421        C422   1.421       .  A
C421       Br429   1.933       .  S
C422       Br433   1.925       .  S
C423        C424   1.420       .  A
C423        C428   1.416       .  A
C424        C425   1.419       .  A
C424       Br435   1.930       .  S
C425        C426   1.411       .  A
C425       Br431   1.929       .  S
C426        C427   1.413       .  A
C427        C428   1.417       .  A
C427       Br436   1.927       .  S
C428       Br432   1.930       .  S
C437        C438   1.430       .  A
C437        C442   1.435       .  A
C438        C439   1.416       .  A
C438       Br450   1.926       .  S
C439        C440   1.403       .  A
C439       Br454   1.932       .  S
C440        C443   1.498       .  S
C440        C441   1.401       .  A
C441        C442   1.414       .  A
C441       Br449   1.939       .  S
C442       Br453   1.920       .  S
C443        C444   1.408       .  A
C443        C448   1.409       .  A
C444        C445   1.410       .  A
C444       Br455   1.932       .  S
C445        C446   1.420       .  A
C445       Br451   1.934       .  S
C446        C447   1.418       .  A
C447        C448   1.413       .  A
C447       Br456   1.932       .  S
C448       Br452   1.924       .  S
C457        C458   1.419       .  A
C457        C462   1.419       .  A
C458        C459   1.407       .  A
C458       Br470   1.934       .  S
C459        C460   1.409       .  A
C459       Br474   1.935       .  S
C460        C463   1.489       .  S
C460        C461   1.410       .  A
C461        C462   1.410       .  A
C461       Br469   1.934       .  S
C462       Br473   1.934       .  S
C463        C464   1.403       .  A
C463        C468   1.403       .  A
C464        C465   1.405       .  A
C464       Br475   1.936       .  S
C465        C466   1.426       .  A
C465       Br471   1.923       .  S
C466        C467   1.430       .  A
C467        C468   1.412       .  A
C467       Br476   1.913       .  S
C468       Br472   1.937       .  S
C477        C478   1.430       .  A
C477        C482   1.423       .  A
C478        C479   1.408       .  A
C478       Br490   1.922       .  S
C479        C480   1.403       .  A
C479       Br494   1.937       .  S
C480        C483   1.483       .  S
C480        C481   1.403       .  A
C481        C482   1.403       .  A
C481       Br489   1.932       .  S
C482       Br493   1.926       .  S
C483        C484   1.408       .  A
C483        C488   1.406       .  A
C484        C485   1.406       .  A
C484       Br495   1.932       .  S
C485        C486   1.418       .  A
C485       Br491   1.935       .  S
C486        C487   1.421       .  A
C487        C488   1.407       .  A
C487       Br496   1.934       .  S
C488       Br492   1.934       .  S
C497        C498   1.425       .  A
C497        C502   1.423       .  A
C498        C499   1.414       .  A
C498       Br510   1.932       .  S
C499        C500   1.407       .  A
C499       Br514   1.931       .  S
C500        C503   1.495       .  S
C500        C501   1.405       .  A
C501        C502   1.409       .  A
C501       Br509   1.923       .  S
C502       Br513   1.937       .  S
C503        C504   1.404       .  A
C503        C508   1.400       .  A
C504        C505   1.416       .  A
C504       Br515   1.929       .  S
C505        C506   1.426       .  A
C505       Br511   1.927       .  S
C506        C507   1.435       .  A
C507        C508   1.412       .  A
C507       Br516   1.913       .  S
C508       Br512   1.944       .  S
C517        C518   1.437       .  A
C517        C522   1.426       .  A
C518        C519   1.415       .  A
C518       Br530   1.915       .  S
C519        C520   1.402       .  A
C519       Br534   1.942       .  S
C520        C523   1.500       .  S
C520        C521   1.404       .  A
C521        C522   1.413       .  A
C521       Br529   1.931       .  S
C522       Br533   1.921       .  S
C523        C524   1.409       .  A
C523        C528   1.407       .  A
C524        C525   1.413       .  A
C524       Br535   1.933       .  S
C525        C526   1.425       .  A
C525       Br531   1.935       .  S
C526        C527   1.427       .  A
C527        C528   1.413       .  A
C527       Br536   1.936       .  S
C528       Br532   1.934       .  S
C537        C538   1.424       .  A
C537        C542   1.424       .  A
C538        C539   1.410       .  A
C538       Br550   1.937       .  S
C539        C540   1.408       .  A
C539       Br554   1.933       .  S
C540        C543   1.494       .  S
C540        C541   1.407       .  A
C541        C542   1.412       .  A
C541       Br549   1.934       .  S
C542       Br553   1.934       .  S
C543        C544   1.403       .  A
C543        C548   1.405       .  A
C544        C545   1.412       .  A
C544       Br555   1.939       .  S
C545        C546   1.431       .  A
C545       Br551   1.915       .  S
C546        C547   1.425       .  A
C547        C548   1.410       .  A
C547       Br556   1.927       .  S
C548       Br552   1.932       .  S
C557        C558   1.424       .  A
C557        C562   1.425       .  A
C558        C559   1.411       .  A
C558       Br570   1.936       .  S
C559        C560   1.408       .  A
C559       Br574   1.933       .  S
C560        C563   1.493       .  S
C560        C561   1.406       .  A
C561        C562   1.410       .  A
C561       Br569   1.936       .  S
C562       Br573   1.935       .  S
C563        C564   1.402       .  A
C563        C568   1.403       .  A
C564        C565   1.414       .  A
C564       Br575   1.939       .  S
C565        C566   1.433       .  A
C565       Br571   1.917       .  S
C566        C567   1.429       .  A
C567        C568   1.409       .  A
C567       Br576   1.925       .  S
C568       Br572   1.936       .  S
C577        C578   1.433       .  A
C577        C582   1.430       .  A
C578        C579   1.420       .  A
C578       Br590   1.935       .  S
C579        C580   1.408       .  A
C579       Br594   1.934       .  S
C580        C583   1.511       .  S
C580        C581   1.409       .  A
C581        C582   1.419       .  A
C581       Br589   1.932       .  S
C582       Br593   1.935       .  S
C583        C584   1.407       .  A
C583        C588   1.401       .  A
C584        C585   1.422       .  A
C584       Br595   1.931       .  S
C585        C586   1.429       .  A
C585       Br591   1.919       .  S
C586        C587   1.437       .  A
C587        C588   1.418       .  A
C587       Br596   1.908       .  S
C588       Br592   1.942       .  S
C597        C598   1.427       .  A
C597        C602   1.432       .  A
C598        C599   1.422       .  A
C598       Br610   1.932       .  S
C599        C600   1.408       .  A
C599       Br614   1.928       .  S
C600        C603   1.501       .  S
C600        C601   1.400       .  A
C601        C602   1.408       .  A
C601       Br609   1.941       .  S
C602       Br613   1.911       .  S
C603        C604   1.414       .  A
C603        C608   1.404       .  A
C604        C605   1.418       .  A
C604       Br615   1.927       .  S
C605        C606   1.415       .  A
C605       Br611   1.928       .  S
C606        C607   1.418       .  A
C607        C608   1.411       .  A
C607       Br616   1.920       .  S
C608       Br612   1.929       .  S
C617        C618   1.430       .  A
C617        C622   1.430       .  A
C618        C619   1.422       .  A
C618       Br630   1.926       .  S
C619        C620   1.406       .  A
C619       Br634   1.931       .  S
C620        C623   1.506       .  S
C620        C621   1.402       .  A
C621        C622   1.415       .  A
C621       Br629   1.939       .  S
C622       Br633   1.905       .  S
C623        C624   1.410       .  A
C623        C628   1.405       .  A
C624        C625   1.417       .  A
C624       Br635   1.925       .  S
C625        C626   1.420       .  A
C625       Br631   1.930       .  S
C626        C627   1.427       .  A
C627        C628   1.414       .  A
C627       Br636   1.938       .  S
C628       Br632   1.925       .  S
C637        C638   1.417       .  A
C637        C642   1.417       .  A
C638        C639   1.417       .  A
C638       Br650   1.930       .  S
C639        C640   1.411       .  A
C639       Br654   1.926       .  S
C640        C643   1.503       .  S
C640        C641   1.409       .  A
C641        C642   1.411       .  A
C641       Br649   1.929       .  S
C642       Br653   1.933       .  S
C643        C644   1.404       .  A
C643        C648   1.405       .  A
C644        C645   1.416       .  A
C644       Br655   1.937       .  S
C645        C646   1.426       .  A
C645       Br651   1.906       .  S
C646        C647   1.429       .  A
C647        C648   1.418       .  A
C647       Br656   1.925       .  S
C648       Br652   1.931       .  S
C657        C658   1.434       .  A
C657        C662   1.426       .  A
C658        C659   1.415       .  A
C658       Br670   1.911       .  S
C659        C660   1.401       .  A
C659       Br674   1.940       .  S
C660        C663   1.500       .  S
C660        C661   1.404       .  A
C661        C662   1.416       .  A
C661       Br669   1.931       .  S
C662       Br673   1.920       .  S
C663        C664   1.412       .  A
C663        C668   1.412       .  A
C664        C665   1.412       .  A
C664       Br675   1.928       .  S
C665        C666   1.411       .  A
C665       Br671   1.930       .  S
C666        C667   1.411       .  A
C667        C668   1.413       .  A
C667       Br676   1.930       .  S
C668       Br672   1.928       .  S
C677        C678   1.428       .  A
C677        C682   1.426       .  A
C678        C679   1.410       .  A
C678       Br690   1.917       .  S
C679        C680   1.406       .  A
C679       Br694   1.940       .  S
C680        C683   1.503       .  S
C680        C681   1.409       .  A
C681        C682   1.418       .  A
C681       Br689   1.932       .  S
C682       Br693   1.933       .  S
C683        C684   1.411       .  A
C683        C688   1.416       .  A
C684        C685   1.411       .  A
C684       Br695   1.928       .  S
C685        C686   1.415       .  A
C685       Br691   1.932       .  S
C686        C687   1.409       .  A
C687        C688   1.413       .  A
C687       Br696   1.926       .  S
C688       Br692   1.930       .  S
C697        C698   1.430       .  A
C697        C702   1.431       .  A
C698        C699   1.414       .  A
C698       Br710   1.935       .  S
C699        C700   1.404       .  A
C699       Br714   1.935       .  S
C700        C703   1.490       .  S
C700        C701   1.401       .  A
C701        C702   1.409       .  A
C701       Br709   1.928       .  S
C702       Br713   1.939       .  S
C703        C704   1.402       .  A
C703        C708   1.401       .  A
C704        C705   1.411       .  A
C704       Br715   1.930       .  S
C705        C706   1.427       .  A
C705       Br711   1.928       .  S
C706        C707   1.433       .  A
C707        C708   1.412       .  A
C707       Br716   1.918       .  S
C708       Br712   1.940       .  S
C717        C718   1.419       .  A
C717        C722   1.417       .  A
C718        C719   1.410       .  A
C718       Br730   1.931       .  S
C719        C720   1.407       .  A
C719       Br734   1.929       .  S
C720        C723   1.498       .  S
C720        C721   1.407       .  A
C721        C722   1.414       .  A
C721       Br729   1.922       .  S
C722       Br733   1.928       .  S
C723        C724   1.405       .  A
C723        C728   1.404       .  A
C724        C725   1.418       .  A
C724       Br735   1.929       .  S
C725        C726   1.426       .  A
C725       Br731   1.931       .  S
C726        C727   1.430       .  A
C727        C728   1.412       .  A
C727       Br736   1.913       .  S
C728       Br732   1.943       .  S
C737        C738   1.430       .  A
C737        C742   1.436       .  A
C738        C739   1.420       .  A
C738       Br750   1.923       .  S
C739        C740   1.410       .  A
C739       Br754   1.930       .  S
C740        C743   1.514       .  S
C740        C741   1.404       .  A
C741        C742   1.415       .  A
C741       Br749   1.936       .  S
C742       Br753   1.918       .  S
C743        C744   1.418       .  A
C743        C748   1.417       .  A
C744        C745   1.415       .  A
C744       Br755   1.932       .  S
C745        C746   1.411       .  A
C745       Br751   1.927       .  S
C746        C747   1.414       .  A
C747        C748   1.419       .  A
C747       Br756   1.927       .  S
C748       Br752   1.930       .  S
C757        C758   1.430       .  A
C757        C762   1.435       .  A
C758        C759   1.421       .  A
C758       Br770   1.926       .  S
C759        C760   1.410       .  A
C759       Br774   1.932       .  S
C760        C763   1.517       .  S
C760        C761   1.407       .  A
C761        C762   1.421       .  A
C761       Br769   1.941       .  S
C762       Br773   1.913       .  S
C763        C764   1.418       .  A
C763        C768   1.415       .  A
C764        C765   1.419       .  A
C764       Br775   1.927       .  S
C765        C766   1.412       .  A
C765       Br771   1.927       .  S
C766        C767   1.411       .  A
C767        C768   1.417       .  A
C767       Br776   1.923       .  S
C768       Br772   1.929       .  S
C777        C778   1.409       .  A
C777        C782   1.406       .  A
C778        C779   1.411       .  A
C778       Br790   1.926       .  S
C779        C780   1.414       .  A
C779       Br794   1.930       .  S
C780        C783   1.500       .  S
C780        C781   1.415       .  A
C781        C782   1.409       .  A
C781       Br789   1.924       .  S
C782       Br793   1.929       .  S
C783        C784   1.407       .  A
C783        C788   1.407       .  A
C784        C785   1.414       .  A
C784       Br795   1.940       .  S
C785        C786   1.433       .  A
C785       Br791   1.921       .  S
C786        C787   1.424       .  A
C787        C788   1.411       .  A
C787       Br796   1.929       .  S
C788       Br792   1.930       .  S
C797        C798   1.424       .  A
C797        C802   1.428       .  A
C798        C799   1.408       .  A
C798       Br810   1.928       .  S
C799        C800   1.402       .  A
C799       Br814   1.932       .  S
C800        C803   1.486       .  S
C800        C801   1.403       .  A
C801        C802   1.410       .  A
C801       Br809   1.938       .  S
C802       Br813   1.920       .  S
C803        C804   1.407       .  A
C803        C808   1.408       .  A
C804        C805   1.406       .  A
C804       Br815   1.927       .  S
C805        C806   1.418       .  A
C805       Br811   1.935       .  S
C806        C807   1.418       .  A
C807        C808   1.408       .  A
C807       Br816   1.932       .  S
C808       Br812   1.933       .  S
C817        C818   1.426       .  A
C817        C822   1.426       .  A
C818        C819   1.414       .  A
C818       Br830   1.934       .  S
C819        C820   1.407       .  A
C819       Br834   1.933       .  S
C820        C823   1.494       .  S
C820        C821   1.405       .  A
C821        C822   1.409       .  A
C821       Br829   1.930       .  S
C822       Br833   1.937       .  S
C823        C824   1.404       .  A
C823        C828   1.404       .  A
C824        C825   1.412       .  A
C824       Br835   1.939       .  S
C825        C826   1.431       .  A
C825       Br831   1.921       .  S
C826        C827   1.425       .  A
C827        C828   1.412       .  A
C827       Br836   1.928       .  S
C828       Br832   1.930       .  S
C837        C838   1.431       .  A
C837        C842   1.430       .  A
C838        C839   1.414       .  A
C838       Br850   1.937       .  S
C839        C840   1.405       .  A
C839       Br854   1.935       .  S
C840        C843   1.498       .  S
C840        C841   1.405       .  A
C841        C842   1.414       .  A
C841       Br849   1.930       .  S
C842       Br853   1.937       .  S
C843        C844   1.403       .  A
C843        C848   1.401       .  A
C844        C845   1.415       .  A
C844       Br855   1.933       .  S
C845        C846   1.430       .  A
C845       Br851   1.923       .  S
C846        C847   1.434       .  A
C847        C848   1.415       .  A
C847       Br856   1.914       .  S
C848       Br852   1.939       .  S
C857        C858   1.418       .  A
C857        C862   1.415       .  A
C858        C859   1.411       .  A
C858       Br870   1.933       .  S
C859        C860   1.407       .  A
C859       Br874   1.926       .  S
C860        C863   1.498       .  S
C860        C861   1.411       .  A
C861        C862   1.413       .  A
C861       Br869   1.927       .  S
C862       Br873   1.927       .  S
C863        C864   1.406       .  A
C863        C868   1.407       .  A
C864        C865   1.411       .  A
C864       Br875   1.941       .  S
C865        C866   1.426       .  A
C865       Br871   1.915       .  S
C866        C867   1.426       .  A
C867        C868   1.416       .  A
C867       Br876   1.934       .  S
C868       Br872   1.930       .  S
C877        C878   1.426       .  A
C877        C882   1.430       .  A
C878        C879   1.413       .  A
C878       Br890   1.929       .  S
C879        C880   1.406       .  A
C879       Br894   1.932       .  S
C880        C883   1.497       .  S
C880        C881   1.405       .  A
C881        C882   1.411       .  A
C881       Br889   1.939       .  S
C882       Br893   1.921       .  S
C883        C884   1.407       .  A
C883        C888   1.408       .  A
C884        C885   1.410       .  A
C884       Br895   1.930       .  S
C885        C886   1.425       .  A
C885       Br891   1.937       .  S
C886        C887   1.424       .  A
C887        C888   1.413       .  A
C887       Br896   1.934       .  S
C888       Br892   1.931       .  S
C897        C898   1.440       .  A
C897        C902   1.434       .  A
C898        C899   1.421       .  A
C898       Br910   1.916       .  S
C899        C900   1.402       .  A
C899       Br914   1.938       .  S
C900        C903   1.511       .  S
C900        C901   1.404       .  A
C901        C902   1.422       .  A
C901       Br909   1.934       .  S
C902       Br913   1.922       .  S
C903        C904   1.413       .  A
C903        C908   1.411       .  A
C904        C905   1.419       .  A
C904       Br915   1.928       .  S
C905        C906   1.417       .  A
C905       Br911   1.929       .  S
C906        C907   1.415       .  A
C907        C908   1.415       .  A
C907       Br916   1.928       .  S
C908       Br912   1.926       .  S
C917        C918   1.433       .  A
C917        C922   1.439       .  A
C918        C919   1.419       .  A
C918       Br930   1.923       .  S
C919        C920   1.404       .  A
C919       Br934   1.932       .  S
C920        C923   1.505       .  S
C920        C921   1.401       .  A
C921        C922   1.418       .  A
C921       Br929   1.941       .  S
C922       Br933   1.915       .  S
C923        C924   1.410       .  A
C923        C928   1.412       .  A
C924        C925   1.413       .  A
C924       Br935   1.922       .  S
C925        C926   1.414       .  A
C925       Br931   1.931       .  S
C926        C927   1.418       .  A
C927        C928   1.416       .  A
C927       Br936   1.931       .  S
C928       Br932   1.930       .  S
C937        C938   1.429       .  A
C937        C942   1.435       .  A
C938        C939   1.411       .  A
C938       Br950   1.923       .  S
C939        C940   1.403       .  A
C939       Br954   1.934       .  S
C940        C943   1.494       .  S
C940        C941   1.402       .  A
C941        C942   1.413       .  A
C941       Br949   1.938       .  S
C942       Br953   1.920       .  S
C943        C944   1.412       .  A
C943        C948   1.411       .  A
C944        C945   1.410       .  A
C944       Br955   1.930       .  S
C945        C946   1.409       .  A
C945       Br951   1.924       .  S
C946        C947   1.410       .  A
C947        C948   1.410       .  A
C947       Br956   1.923       .  S
C948       Br952   1.931       .  S
C957        C958   1.422       .  A
C957        C962   1.423       .  A
C958        C959   1.408       .  A
C958       Br970   1.935       .  S
C959        C960   1.404       .  A
C959       Br974   1.929       .  S
C960        C963   1.489       .  S
C960        C961   1.406       .  A
C961        C962   1.411       .  A
C961       Br969   1.933       .  S
C962       Br973   1.934       .  S
C963        C964   1.401       .  A
C963        C968   1.400       .  A
C964        C965   1.410       .  A
C964       Br975   1.934       .  S
C965        C966   1.428       .  A
C965       Br971   1.924       .  S
C966        C967   1.433       .  A
C967        C968   1.413       .  A
C967       Br976   1.919       .  S
C968       Br972   1.938       .  S
C977        C978   1.436       .  A
C977        C982   1.433       .  A
C978        C979   1.418       .  A
C978       Br990   1.919       .  S
C979        C980   1.402       .  A
C979       Br994   1.937       .  S
C980        C983   1.505       .  S
C980        C981   1.403       .  A
C981        C982   1.418       .  A
C981       Br989   1.933       .  S
C982       Br993   1.922       .  S
C983        C984   1.409       .  A
C983        C988   1.408       .  A
C984        C985   1.416       .  A
C984       Br995   1.929       .  S
C985        C986   1.423       .  A
C985       Br991   1.932       .  S
C986        C987   1.423       .  A
C987        C988   1.414       .  A
C987       Br996   1.934       .  S
C988       Br992   1.927       .  S
C997        C998   1.427       .  A
C997       C1002   1.439       .  A
C998        C999   1.418       .  A
C998      Br1010   1.927       .  S
C999       C1000   1.405       .  A
C999      Br1014   1.928       .  S
C1000      C1003   1.501       .  S
C1000      C1001   1.401       .  A
C1001      C1002   1.415       .  A
C1001     Br1009   1.944       .  S
C1002     Br1013   1.916       .  S
C1003      C1004   1.414       .  A
C1003      C1008   1.408       .  A
C1004      C1005   1.416       .  A
C1004     Br1015   1.919       .  S
C1005      C1006   1.411       .  A
C1005     Br1011   1.926       .  S
C1006      C1007   1.412       .  A
C1007      C1008   1.410       .  A
C1007     Br1016   1.917       .  S
C1008     Br1012   1.931       .  S
C1017      C1018   1.411       .  A
C1017      C1022   1.411       .  A
C1018      C1019   1.416       .  A
C1018     Br1030   1.926       .  S
C1019      C1020   1.416       .  A
C1019     Br1034   1.930       .  S
C1020      C1023   1.512       .  S
C1020      C1021   1.417       .  A
C1021      C1022   1.416       .  A
C1021     Br1029   1.931       .  S
C1022     Br1033   1.927       .  S
C1023      C1024   1.405       .  A
C1023      C1028   1.409       .  A
C1024      C1025   1.416       .  A
C1024     Br1035   1.936       .  S
C1025      C1026   1.432       .  A
C1025     Br1031   1.912       .  S
C1026      C1027   1.429       .  A
C1027      C1028   1.418       .  A
C1027     Br1036   1.919       .  S
C1028     Br1032   1.932       .  S
C1037      C1038   1.426       .  A
C1037      C1042   1.425       .  A
C1038      C1039   1.418       .  A
C1038     Br1050   1.933       .  S
C1039      C1040   1.408       .  A
C1039     Br1054   1.929       .  S
C1040      C1043   1.503       .  S
C1040      C1041   1.407       .  A
C1041      C1042   1.411       .  A
C1041     Br1049   1.939       .  S
C1042     Br1053   1.915       .  S
C1043      C1044   1.410       .  A
C1043      C1048   1.405       .  A
C1044      C1045   1.419       .  A
C1044     Br1055   1.927       .  S
C1045      C1046   1.424       .  A
C1045     Br1051   1.931       .  S
C1046      C1047   1.427       .  A
C1047      C1048   1.408       .  A
C1047     Br1056   1.938       .  S
C1048     Br1052   1.933       .  S
C1057      C1058   1.422       .  A
C1057      C1062   1.423       .  A
C1058      C1059   1.411       .  A
C1058     Br1070   1.934       .  S
C1059      C1060   1.408       .  A
C1059     Br1074   1.934       .  S
C1060      C1063   1.498       .  S
C1060      C1061   1.412       .  A
C1061      C1062   1.414       .  A
C1061     Br1069   1.935       .  S
C1062     Br1073   1.934       .  S
C1063      C1064   1.405       .  A
C1063      C1068   1.407       .  A
C1064      C1065   1.413       .  A
C1064     Br1075   1.936       .  S
C1065      C1066   1.429       .  A
C1065     Br1071   1.916       .  S
C1066      C1067   1.424       .  A
C1067      C1068   1.410       .  A
C1067     Br1076   1.927       .  S
C1068     Br1072   1.933       .  S
C1077      C1078   1.424       .  A
C1077      C1082   1.426       .  A
C1078      C1079   1.416       .  A
C1078     Br1090   1.934       .  S
C1079      C1080   1.408       .  A
C1079     Br1094   1.931       .  S
C1080      C1083   1.502       .  S
C1080      C1081   1.407       .  A
C1081      C1082   1.413       .  A
C1081     Br1089   1.938       .  S
C1082     Br1093   1.917       .  S
C1083      C1084   1.409       .  A
C1083      C1088   1.414       .  A
C1084      C1085   1.410       .  A
C1084     Br1095   1.930       .  S
C1085      C1086   1.418       .  A
C1085     Br1091   1.934       .  S
C1086      C1087   1.416       .  A
C1087      C1088   1.416       .  A
C1087     Br1096   1.928       .  S
C1088     Br1092   1.931       .  S
C1097      C1098   1.424       .  A
C1097      C1102   1.421       .  A
C1098      C1099   1.411       .  A
C1098     Br1110   1.934       .  S
C1099      C1100   1.408       .  A
C1099     Br1114   1.934       .  S
C1100      C1103   1.498       .  S
C1100      C1101   1.411       .  A
C1101      C1102   1.413       .  A
C1101     Br1109   1.934       .  S
C1102     Br1113   1.934       .  S
C1103      C1104   1.405       .  A
C1103      C1108   1.403       .  A
C1104      C1105   1.410       .  A
C1104     Br1115   1.931       .  S
C1105      C1106   1.423       .  A
C1105     Br1111   1.922       .  S
C1106      C1107   1.436       .  A
C1107      C1108   1.415       .  A
C1107     Br1116   1.914       .  S
C1108     Br1112   1.941       .  S
C1117      C1118   1.418       .  A
C1117      C1122   1.417       .  A
C1118      C1119   1.413       .  A
C1118     Br1130   1.932       .  S
C1119      C1120   1.409       .  A
C1119     Br1134   1.928       .  S
C1120      C1123   1.499       .  S
C1120      C1121   1.411       .  A
C1121      C1122   1.414       .  A
C1121     Br1129   1.932       .  S
C1122     Br1133   1.926       .  S
C1123      C1124   1.405       .  A
C1123      C1128   1.407       .  A
C1124      C1125   1.411       .  A
C1124     Br1135   1.938       .  S
C1125      C1126   1.425       .  A
C1125     Br1131   1.916       .  S
C1126      C1127   1.425       .  A
C1127      C1128   1.416       .  A
C1127     Br1136   1.934       .  S
C1128     Br1132   1.930       .  S
C1137      C1138   1.429       .  A
C1137      C1142   1.427       .  A
C1138      C1139   1.416       .  A
C1138     Br1150   1.935       .  S
C1139      C1140   1.408       .  A
C1139     Br1154   1.930       .  S
C1140      C1143   1.508       .  S
C1140      C1141   1.409       .  A
C1141      C1142   1.416       .  A
C1141     Br1149   1.933       .  S
C1142     Br1153   1.937       .  S
C1143      C1144   1.403       .  A
C1143      C1148   1.405       .  A
C1144      C1145   1.418       .  A
C1144     Br1155   1.940       .  S
C1145      C1146   1.437       .  A
C1145     Br1151   1.916       .  S
C1146      C1147   1.433       .  A
C1147      C1148   1.419       .  A
C1147     Br1156   1.923       .  S
C1148     Br1152   1.935       .  S
C1157      C1158   1.420       .  A
C1157      C1162   1.418       .  A
C1158      C1159   1.413       .  A
C1158     Br1170   1.933       .  S
C1159      C1160   1.408       .  A
C1159     Br1174   1.928       .  S
C1160      C1163   1.506       .  S
C1160      C1161   1.413       .  A
C1161      C1162   1.418       .  A
C1161     Br1169   1.927       .  S
C1162     Br1173   1.926       .  S
C1163      C1164   1.407       .  A
C1163      C1168   1.403       .  A
C1164      C1165   1.420       .  A
C1164     Br1175   1.930       .  S
C1165      C1166   1.427       .  A
C1165     Br1171   1.926       .  S
C1166      C1167   1.436       .  A
C1167      C1168   1.416       .  A
C1167     Br1176   1.916       .  S
C1168     Br1172   1.942       .  S
