geometry optimzed in LAMMPS
_audit_creation_date              2020-11-30 
_audit_creation_method            'lammps2cif' 
_symmetry_space_group_name_H-M    'P1' 
_symmetry_Int_Tables_number       1 
_symmetry_cell_setting            triclinic 
loop_ 
_symmetry_equiv_pos_as_xyz 
  x,y,z 
_cell_length_a                    45.5711499 
_cell_length_b                    42.91275018112419 
_cell_length_c                    25.12749937805114 
_cell_angle_alpha                 89.67402254219563 
_cell_angle_beta                  90.08591324009006 
_cell_angle_gamma                 89.81842784247273 
loop_ 
_atom_site_label 
_atom_site_type_symbol 
_atom_site_fract_x 
_atom_site_fract_y 
_atom_site_fract_z 
_atom_site_charge 
C1          C  0.18176583  0.06250439  0.26247183     0.88300
C2          C  0.16463478  0.07242560  0.21265715    -0.51900
C3          C  0.15661866  0.10313018  0.21168177     0.11300
C4          C  0.16649785  0.12127501  0.26086327     0.22200
C5          C  0.20787187  0.08523294  0.26476871    -0.52600
C6          C  0.19976807  0.11622777  0.26423890     0.11400
C7          C  0.16188622  0.07240961  0.30915895    -0.52200
C8          C  0.15394817  0.10310821  0.30817273     0.11900
H9          H  0.16009682  0.05644827  0.18038404     0.16400
H10         H  0.15984886  0.14621950  0.26009131     0.02200
H11         H  0.23036403  0.07710540  0.26754225     0.16800
H12         H  0.15507856  0.05719375  0.34112439     0.16500
C13         C  0.77306387  0.05842720  0.23695908     0.88300
C14         C  0.79237641  0.06898896  0.28380620    -0.51900
C15         C  0.79974664  0.09987271  0.28209895     0.11300
C16         C  0.78715632  0.11728257  0.23370035     0.22200
C17         C  0.74638342  0.08078453  0.23816945    -0.52600
C18         C  0.75396023  0.11191763  0.23649308     0.11400
C19         C  0.79003211  0.06801188  0.18679067    -0.52200
C20         C  0.79763360  0.09872871  0.18530882     0.11900
H21         H  0.79879630  0.05343735  0.31603740     0.16400
H22         H  0.79341273  0.14229130  0.23224428     0.02200
H23         H  0.72396396  0.07248141  0.23991243     0.16800
H24         H  0.79528504  0.05178288  0.15519243     0.16500
In25       In  0.88198470  0.14074547  0.99424016     1.36900
C26         C  0.85029748  0.11293334  0.06908663     0.79400
O27         O  0.87612041  0.18794440  0.95692134    -0.59000
O28         O  0.87033982  0.19291774  0.45331813    -0.49900
C29         C  0.93438932  0.13863964  0.48588826     0.72100
O30         O  0.92360847  0.13195182  0.03980159    -0.44800
C31         C  0.85050444  0.11771501  0.40073888     0.76800
O32         O  0.84424215  0.13971291  0.05131285    -0.56600
O33         O  0.84284103  0.14403047  0.41817868    -0.46700
O34         O  0.87227761  0.10019983  0.04805646    -0.53100
C35         C  0.87777398  0.20230343  0.00039140     0.87000
O36         O  0.92073087  0.14857306  0.44563587    -0.55000
O37         O  0.87172259  0.10542158  0.42518203    -0.58300
In38       In  0.08644556  0.14277158  0.00030971     1.36900
C39         C  0.10553036  0.11771452  0.43008421     0.79400
O40         O  0.10014316  0.18891600  0.48554240    -0.59000
O41         O  0.09465795  0.19094446  0.03004635    -0.49900
C42         C  0.02874237  0.13657665  0.00395311     0.72100
O43         O  0.04016290  0.14501043  0.46274786    -0.44800
C44         C  0.11111611  0.11711851  0.08543897     0.76800
O45         O  0.08874590  0.10304891  0.46104843    -0.56600
O46         O  0.11598341  0.14493203  0.07165618    -0.46700
O47         O  0.10950065  0.14590732  0.44168265    -0.53100
C48         C  0.08824098  0.20491292  0.52142767     0.87000
O49         O  0.04359299  0.14373181  0.04425066    -0.55000
O50         O  0.09375380  0.10255495  0.05568814    -0.58300
C51         C  0.16973475  0.45820041  0.23921782     0.88300
C52         C  0.15544883  0.44409579  0.28893093    -0.51900
C53         C  0.15106914  0.41263168  0.28648528     0.11300
C54         C  0.16154111  0.39826378  0.23376259     0.22200
C55         C  0.19854422  0.43955371  0.23230370    -0.52600
C56         C  0.19397883  0.40781632  0.22971580     0.11400
C57         C  0.15016360  0.44825532  0.19316288    -0.52200
C58         C  0.14590905  0.41715187  0.18993202     0.11900
H59         H  0.15023693  0.45803642  0.32357877     0.16400
H60         H  0.15771696  0.37274894  0.23134717     0.02200
H61         H  0.22005630  0.45020168  0.23027390     0.16800
H62         H  0.14016217  0.46466302  0.16532169     0.16500
C63         C  0.80033121  0.45567849  0.26660971     0.88300
C64         C  0.81896980  0.44566922  0.21842362    -0.51900
C65         C  0.82436871  0.41426962  0.21649382     0.11300
C66         C  0.81132496  0.39610628  0.26366242     0.22200
C67         C  0.77254962  0.43539547  0.26401872    -0.52600
C68         C  0.77843321  0.40390149  0.26262116     0.11400
C69         C  0.81725753  0.44324577  0.31510421    -0.52200
C70         C  0.82306472  0.41210630  0.31366160     0.11900
H71         H  0.82709863  0.46203128  0.18891626     0.16400
H72         H  0.81610328  0.37069718  0.26264854     0.02200
H73         H  0.75065840  0.44532220  0.26387804     0.16800
H74         H  0.82317740  0.45782952  0.34855797     0.16500
In75       In  0.87947305  0.35894827  0.99988793     1.36900
C76         C  0.86692455  0.39124147  0.43914521     0.79400
O77         O  0.88304343  0.31682354  0.47450807    -0.59000
O78         O  0.89255903  0.31164080  0.97078820    -0.49900
C79         C  0.93725017  0.36852300  0.99559155     0.72100
O80         O  0.93333650  0.36514964  0.47921945    -0.44800
C81         C  0.85767696  0.39196044  0.08071367     0.76800
O82         O  0.88813071  0.40169178  0.46564081    -0.56600
O83         O  0.86801549  0.36485385  0.08663864    -0.46700
O84         O  0.85711640  0.36538134  0.45510964    -0.53100
C85         C  0.88244205  0.29939714  0.51491796     0.87000
O86         O  0.92351118  0.36685627  0.03890544    -0.55000
O87         O  0.85907703  0.40237199  0.03385558    -0.58300
In88       In  0.08442400  0.35969938  0.98606642     1.36900
C89         C  0.11714202  0.37311407  0.07012621     0.79400
O90         O  0.08146929  0.31228930  0.02295485    -0.59000
O91         O  0.10167906  0.31248758  0.47386956    -0.49900
C92         C  0.03699231  0.36520593  0.51290006     0.72100
O93         O  0.04197545  0.36767747  0.02951418    -0.44800
C94         C  0.11341042  0.38942609  0.41845788     0.76800
O95         O  0.09303989  0.38639158  0.05993085    -0.56600
O96         O  0.12113111  0.36195838  0.42995602    -0.46700
O97         O  0.12504501  0.35314537  0.03644809    -0.53100
C98         C  0.08568124  0.29814650  0.97994945     0.87000
O99         O  0.04971626  0.35591624  0.47152952    -0.55000
O100        O  0.09674289  0.40192101  0.45209655    -0.58300
C101        C  0.29009264  0.21896242  0.29369235     0.88300
C102        C  0.30958423  0.21399178  0.24449108    -0.51900
C103        C  0.31574215  0.18359601  0.23435761     0.11300
C104        C  0.30285851  0.16084134  0.27528675     0.22200
C105        C  0.26283103  0.19830360  0.28456248    -0.52600
C106        C  0.26979417  0.16750726  0.27521975     0.11400
C107        C  0.30679707  0.20273944  0.33928418    -0.52200
C108        C  0.31355378  0.17234417  0.32932406     0.11900
H109        H  0.31743439  0.23286543  0.21931409     0.16400
H110        H  0.30864903  0.13604788  0.26821740     0.02200
H111        H  0.24058344  0.20724247  0.28652314     0.16800
H112        H  0.31356200  0.21451121  0.37541777     0.16500
C113        C  0.66294000  0.21609758  0.26190680     0.88300
C114        C  0.64806007  0.20338536  0.31220170    -0.51900
C115        C  0.64209524  0.17221596  0.31062396     0.11300
C116        C  0.65132681  0.15674613  0.25837269     0.22200
C117        C  0.69065128  0.19526381  0.25497504    -0.52600
C118        C  0.68414754  0.16377983  0.25339759     0.11400
C119        C  0.64259096  0.20684890  0.21622414    -0.52200
C120        C  0.63672823  0.17594223  0.21390278     0.11900
H121        H  0.64297995  0.21818944  0.34578845     0.16400
H122        H  0.64600136  0.13151453  0.25705891     0.02200
H123        H  0.71278113  0.20434314  0.25279463     0.16800
H124        H  0.63385221  0.22345311  0.18738778     0.16500
In125      In  0.57853095  0.10445658  0.01863252     1.36900
C126        C  0.60811103  0.12416722  0.10271471     0.79400
O127        O  0.57662776  0.05699456  0.05542637    -0.59000
O128        O  0.61601370  0.06864479  0.49845787    -0.49900
C129        C  0.53264861  0.11768212  0.51550841     0.72100
O130        O  0.53562566  0.11106222  0.05991207    -0.44800
C131        C  0.61209760  0.14555763  0.44650370     0.76800
O132        O  0.58568825  0.13795371  0.08491817    -0.56600
O133        O  0.60811625  0.11666476  0.44185857    -0.46700
O134        O  0.61564799  0.10028876  0.07720256    -0.53100
C135        C  0.58157447  0.04319904  0.01227004     0.87000
O136        O  0.54932138  0.11840326  0.47572586    -0.55000
O137        O  0.60535939  0.15647385  0.49124578    -0.58300
In138      In  0.37488284  0.11615415  0.03440130     1.36900
C139        C  0.34860849  0.13766043  0.45412454     0.79400
O140        O  0.38255866  0.06849039  0.47475050    -0.59000
O141        O  0.36121781  0.07170514  0.99588710    -0.49900
C142        C  0.43248292  0.11913766  0.02489203     0.72100
O143        O  0.42669155  0.13687777  0.48988515    -0.44800
C144        C  0.34433114  0.13633840  0.11700031     0.76800
O145        O  0.37327222  0.12739097  0.43961008    -0.56600
O146        O  0.33615295  0.11379225  0.08889045    -0.46700
O147        O  0.34298479  0.13395758  0.50267261    -0.53100
C148        C  0.37915797  0.05151043  0.51530056     0.87000
O149        O  0.41981785  0.12151660  0.06914987    -0.55000
O150        O  0.36815301  0.14866895  0.10285486    -0.58300
C151        C  0.28390576  0.30754214  0.26357192     0.88300
C152        C  0.30028236  0.32177705  0.31137498    -0.51900
C153        C  0.30838614  0.35214239  0.30394042     0.11300
C154        C  0.29913900  0.36569983  0.24955547     0.22200
C155        C  0.25788070  0.32975197  0.25385574    -0.52600
C156        C  0.26583732  0.36040408  0.24670569     0.11400
C157        C  0.30437069  0.31299706  0.21607066    -0.52200
C158        C  0.31219083  0.34324268  0.20800627     0.11900
H159        H  0.30423277  0.30986005  0.34871084     0.16400
H160        H  0.30564747  0.39041751  0.24411084     0.02200
H161        H  0.23533453  0.32176033  0.25455041     0.16800
H162        H  0.31163649  0.29435098  0.19007952     0.16500
C163        C  0.68355819  0.30515299  0.26147019     0.88300
C164        C  0.66594545  0.31657129  0.21284208    -0.51900
C165        C  0.66009996  0.34786508  0.21266079     0.11300
C166        C  0.67248766  0.36477530  0.26151149     0.22200
C167        C  0.71133969  0.32552124  0.26150614    -0.52600
C168        C  0.70542467  0.35703831  0.26166087     0.11400
C169        C  0.66606655  0.31624687  0.31015059    -0.52200
C170        C  0.66005942  0.34747665  0.31021730     0.11900
H171        H  0.65955718  0.30104896  0.18095725     0.16400
H172        H  0.66766948  0.39018642  0.26153583     0.02200
H173        H  0.73325102  0.31564719  0.26187728     0.16800
H174        H  0.65980936  0.30052337  0.34207395     0.16500
In175      In  0.58730575  0.39635056  0.51515967     1.36900
C176        C  0.61461498  0.36646649  0.43589565     0.79400
O177        O  0.58449903  0.44216686  0.47188164    -0.59000
O178        O  0.58097813  0.44139672  0.05514229    -0.49900
C179        C  0.52565803  0.39105797  0.00516484     0.72100
O180        O  0.54393383  0.38854801  0.47373473    -0.44800
C181        C  0.61256329  0.36763700  0.08923640     0.76800
O182        O  0.59756185  0.35311198  0.46799624    -0.56600
O183        O  0.61730898  0.39573459  0.07720121    -0.46700
O184        O  0.61817059  0.39506851  0.44466847    -0.53100
C185        C  0.59371463  0.45789207  0.51052732     0.87000
O186        O  0.54034891  0.38378688  0.04585065    -0.55000
O187        O  0.59342279  0.35466205  0.06094776    -0.58300
In188      In  0.37778021  0.40025988  0.00153136     1.36900
C189        C  0.34740989  0.38712067  0.09020948     0.79400
O190        O  0.39381745  0.44904674  0.01333850    -0.59000
O191        O  0.37868349  0.45473904  0.45444368    -0.49900
C192        C  0.43906283  0.40080765  0.50643510     0.72100
O193        O  0.42127245  0.39480905  0.04373289    -0.44800
C194        C  0.35477224  0.37715608  0.42493404     0.76800
O195        O  0.36702227  0.36933351  0.07203189    -0.56600
O196        O  0.34830085  0.40515904  0.43440376    -0.46700
O197        O  0.34336606  0.41152011  0.06319032    -0.53100
C198        C  0.37256883  0.46148774  0.98910144     0.87000
O199        O  0.42560329  0.40493502  0.46315454    -0.55000
O200        O  0.37455618  0.36602932  0.45450342    -0.58300
C201        C  0.47045833  0.39687088  0.50947442    -0.11400
C202        C  0.49407858  0.38900903  0.00316153    -0.13000
C203        C  0.62904039  0.34956616  0.39205767    -0.14600
C204        C  0.64475139  0.36414680  0.35406028    -0.29800
H205        H  0.62599985  0.32452253  0.39092741     0.14400
H206        H  0.64633760  0.38940515  0.35458535     0.15000
C207        C  0.64475792  0.36491358  0.16882556    -0.14600
C208        C  0.62791893  0.35065527  0.13235370    -0.29800
H209        H  0.64683942  0.39012333  0.16757086     0.14400
H210        H  0.62429883  0.32571605  0.13472017     0.15000
C211        C  0.32321482  0.37112773  0.34533597    -0.14600
C212        C  0.34046177  0.35842957  0.38327243    -0.29800
H213        H  0.32046085  0.39626238  0.34348436     0.14400
H214        H  0.34497731  0.33356740  0.38325944     0.15000
C215        C  0.33105438  0.35202159  0.16217131    -0.14600
C216        C  0.33022931  0.38020366  0.13875584    -0.29800
H217        H  0.34449500  0.33381297  0.14463482     0.14400
H218        H  0.31555941  0.39811336  0.15361670     0.15000
C219        C  0.37007123  0.49461584  0.98292440    -0.11400
C220        C  0.37704137  0.01822942  0.51224299    -0.13000
C221        C  0.59642631  0.49120529  0.50786411    -0.11400
C222        C  0.58331427  0.01002327  0.00916721    -0.13000
C223        C  0.46366437  0.11842943  0.02012422    -0.11400
C224        C  0.50157220  0.12080466  0.51099240    -0.13000
C225        C  0.66468340  0.25133177  0.26399884    -0.14600
C226        C  0.68839849  0.26992828  0.26130447    -0.29800
H227        H  0.64336348  0.26267327  0.26729763     0.14400
H228        H  0.71034342  0.26022080  0.25867909     0.15000
C229        C  0.62440915  0.13511243  0.14939618    -0.14600
C230        C  0.61877161  0.16306086  0.17056711    -0.29800
H231        H  0.64222521  0.12075491  0.16468299     0.14400
H232        H  0.60226689  0.17813694  0.15252671     0.15000
C233        C  0.62931789  0.15370326  0.35490458    -0.14600
C234        C  0.62357474  0.16529482  0.40337826    -0.29800
H235        H  0.62530067  0.12918068  0.34744886     0.14400
H236        H  0.62736437  0.18959116  0.41237547     0.15000
C237        C  0.28491993  0.25327260  0.30464741    -0.14600
C238        C  0.27552091  0.27315695  0.26647633    -0.29800
H239        H  0.29380007  0.26206667  0.34146607     0.14400
H240        H  0.26604312  0.26335645  0.23056650     0.15000
C241        C  0.32735636  0.14681700  0.16310056    -0.14600
C242        C  0.33293775  0.17381427  0.18762322    -0.27400
H243        H  0.30934292  0.13218064  0.17630529     0.14400
H244        H  0.34944837  0.18957572  0.17184363     0.15000
C245        C  0.33125888  0.15261951  0.36534475    -0.14600
C246        C  0.32841378  0.15416498  0.41824539    -0.29800
H247        H  0.34678078  0.13640281  0.34778968     0.14400
H248        H  0.31137408  0.16859770  0.43573907     0.15000
C249        C  0.00578809  0.36567194  0.51764657    -0.11400
C250        C  0.96862912  0.37125652  0.99288188    -0.13000
C251        C  0.75650016  0.37826860  0.26106851    -0.14600
C252        C  0.72735380  0.38268988  0.26266655    -0.29800
H253        H  0.76519496  0.35477127  0.25885888     0.14400
H254        H  0.71865933  0.40618932  0.26486287     0.15000
C255        C  0.83696691  0.39463815  0.35798810    -0.14600
C256        C  0.85471457  0.40833456  0.39348294    -0.29800
H257        H  0.83252435  0.36984505  0.36119804     0.14400
H258        H  0.86108883  0.43251640  0.38855712     0.15000
C259        C  0.84436378  0.41011668  0.12428966    -0.14600
C260        C  0.84039889  0.39796550  0.17320419    -0.29800
H261        H  0.83631936  0.43330653  0.11475764     0.14400
H262        H  0.84742679  0.37416282  0.18107751     0.15000
C263        C  0.21680396  0.38313032  0.22675473    -0.14600
C264        C  0.24496158  0.38700787  0.24095279    -0.29800
H265        H  0.20913976  0.36005794  0.21646080     0.14400
H266        H  0.25296510  0.41005650  0.25064319     0.15000
C267        C  0.13477220  0.38075867  0.11735321    -0.14600
C268        C  0.12681239  0.40461223  0.14820086    -0.29800
H269        H  0.15515222  0.36824713  0.12487700     0.14400
H270        H  0.10739791  0.41821758  0.13804134     0.15000
C271        C  0.13947796  0.39375413  0.33171641    -0.14600
C272        C  0.12307079  0.40648354  0.37051471    -0.29800
H273        H  0.14482164  0.36908155  0.33320841     0.14400
H274        H  0.11625525  0.43067540  0.36755260     0.15000
C275        C  0.08686122  0.26487099  0.97769561    -0.11400
C276        C  0.09190717  0.23798977  0.52394590    -0.13000
C277        C  0.87581264  0.23563803  0.00323347    -0.11400
C278        C  0.87861670  0.26627132  0.51076913    -0.13000
C279        C  0.99748521  0.13442893  0.00493940    -0.11400
C280        C  0.96570586  0.13791854  0.48891707    -0.13000
C281        C  0.73354872  0.13925574  0.23793480    -0.14600
C282        C  0.70501878  0.13700511  0.25006693    -0.29800
H283        H  0.74281815  0.16208318  0.23008100     0.14400
H284        H  0.69587363  0.11416010  0.25804993     0.15000
C285        C  0.76647616  0.02352213  0.23846601    -0.14600
C286        C  0.79524666  0.49055939  0.27160614    -0.29800
H287        H  0.74402698  0.01545799  0.24190246     0.14400
H288        H  0.79923885  0.50060999  0.31030674     0.15000
C289        C  0.81423100  0.11346215  0.14142254    -0.14600
C290        C  0.83331354  0.09754480  0.11125005    -0.29800
H291        H  0.81177453  0.13845494  0.13578375     0.14400
H292        H  0.83762155  0.07304483  0.11902534     0.15000
C293        C  0.81645368  0.11627245  0.32424031    -0.14600
C294        C  0.83556303  0.10167057  0.35663172    -0.29800
H295        H  0.81313142  0.14124902  0.32804728     0.14400
H296        H  0.84051521  0.07715677  0.35089759     0.15000
C297        C  0.21979041  0.14354045  0.26867019    -0.14600
C298        C  0.24911808  0.14110042  0.26801010    -0.29800
H299        H  0.20969443  0.16628488  0.27297531     0.14400
H300        H  0.25908880  0.11840278  0.26266971     0.15000
C301        C  0.19016544  0.02797001  0.25895835    -0.14600
C302        C  0.16943453  0.49317852  0.24204084    -0.29800
H303        H  0.19982450  0.02012849  0.22181448     0.14400
H304        H  0.14738644  0.50283824  0.24525448     0.15000
C305        C  0.14107745  0.11831611  0.16674734    -0.14600
C306        C  0.12480436  0.10223854  0.13193725    -0.29800
H307        H  0.14298223  0.14346345  0.16260976     0.14400
H308        H  0.12123861  0.07741199  0.13738032     0.15000
C309        C  0.13657659  0.11849078  0.35034684    -0.14600
C310        C  0.11978719  0.10252882  0.38485282    -0.29800
H311        H  0.13810172  0.14364110  0.35342415     0.14400
H312        H  0.11663966  0.07768025  0.38080718     0.15000
C313        C  0.18967524  0.05734819  0.75438624     0.88300
C314        C  0.16913985  0.06695860  0.70840186    -0.51900
C315        C  0.16173163  0.09784203  0.70807199     0.11300
C316        C  0.17538574  0.11633716  0.75372451     0.22200
C317        C  0.21620212  0.07958499  0.74898843    -0.52600
C318        C  0.20844911  0.11082888  0.74904602     0.11400
C319        C  0.17415444  0.06832601  0.80514732    -0.52200
C320        C  0.16639799  0.09906408  0.80456635     0.11900
H321        H  0.16192514  0.05070303  0.67818128     0.16400
H322        H  0.16903493  0.14137696  0.75364413     0.02200
H323        H  0.23858328  0.07117239  0.74591393     0.16800
H324        H  0.17010040  0.05293980  0.83876630     0.16500
C325        C  0.78134139  0.05908589  0.74202318     0.88300
C326        C  0.80321195  0.06805806  0.78587618    -0.51900
C327        C  0.81057382  0.09890517  0.78589345     0.11300
C328        C  0.79552723  0.11785031  0.74153480     0.22200
C329        C  0.75503727  0.08121478  0.75036683    -0.52600
C330        C  0.76260580  0.11230829  0.75013736     0.11400
C331        C  0.79524555  0.07012062  0.68988262    -0.52200
C332        C  0.80303672  0.10080589  0.68962254     0.11900
H333        H  0.81082530  0.05147147  0.81562404     0.16400
H334        H  0.80174172  0.14287828  0.74122822     0.02200
H335        H  0.73296614  0.07274239  0.75702567     0.16800
H336        H  0.79822731  0.05477296  0.65613880     0.16500
In337      In  0.87648702  0.14404256  0.48446908     1.36900
C338        C  0.84731922  0.11630236  0.56255125     0.79400
O339        O  0.88006629  0.18649815  0.53554811    -0.59000
O340        O  0.88152987  0.18533242  0.04093289    -0.49900
C341        C  0.93987088  0.13579687  0.00000158     0.72100
O342        O  0.91857380  0.13040676  0.52432009    -0.44800
C343        C  0.85860425  0.11388974  0.90894139     0.76800
O344        O  0.84210327  0.14401613  0.54849863    -0.56600
O345        O  0.85130993  0.14073296  0.92422257    -0.46700
O346        O  0.86667293  0.10263267  0.53566157    -0.53100
C347        C  0.87530626  0.20530802  0.49786227     0.87000
O348        O  0.92672011  0.14178154  0.95710279    -0.55000
O349        O  0.87798707  0.10082228  0.93706576    -0.58300
In350      In  0.08064687  0.14410276  0.51347090     1.36900
C351        C  0.11752459  0.11511344  0.92504524     0.79400
O352        O  0.08111529  0.18545622  0.94941629    -0.59000
O353        O  0.07255531  0.18990198  0.55394603    -0.49900
C354        C  0.02299014  0.14079964  0.50115392     0.72100
O355        O  0.04325387  0.13218210  0.96217969    -0.44800
C356        C  0.10892064  0.11489878  0.59228738     0.76800
O357        O  0.09621813  0.10226848  0.94794836    -0.56600
O358        O  0.11422125  0.14260917  0.57893552    -0.46700
O359        O  0.12345871  0.14213155  0.94120905    -0.53100
C360        C  0.08801722  0.20374706  0.98638457     0.87000
O361        O  0.03506981  0.13859661  0.54607961    -0.55000
O362        O  0.08885482  0.10219428  0.56591937    -0.58300
C363        C  0.18501155  0.46706622  0.75693445     0.88300
C364        C  0.16662254  0.45325601  0.80267128    -0.51900
C365        C  0.15822934  0.42306900  0.79505554     0.11300
C366        C  0.16927080  0.40935094  0.74245195     0.22200
C367        C  0.21110242  0.44417458  0.75095615    -0.52600
C368        C  0.20264009  0.41366605  0.74361521     0.11400
C369        C  0.16585168  0.46205608  0.70709741    -0.52200
C370        C  0.15824870  0.43180008  0.69892663     0.11900
H371        H  0.16124224  0.46629802  0.83823059     0.16400
H372        H  0.16230282  0.38482073  0.73664072     0.02200
H373        H  0.23377684  0.45157480  0.75361092     0.16800
H374        H  0.15905185  0.48060457  0.68017311     0.16500
C375        C  0.79653159  0.46993875  0.74928695     0.88300
C376        C  0.81186680  0.45293034  0.70381402    -0.51900
C377        C  0.81341759  0.42131614  0.71027255     0.11300
C378        C  0.79879666  0.40952989  0.76181933     0.22200
C379        C  0.76606558  0.45450775  0.75305136    -0.52600
C380        C  0.76702127  0.42268050  0.75924390     0.11400
C381        C  0.81281614  0.45943392  0.79934974    -0.52200
C382        C  0.81416891  0.42805583  0.80637599     0.11900
H383        H  0.82065585  0.46514547  0.66943565     0.16400
H384        H  0.80089540  0.38399391  0.76677007     0.02200
H385        H  0.74551639  0.46717628  0.74972255     0.16800
H386        H  0.82331884  0.47565283  0.82643030     0.16500
In387      In  0.89023874  0.36063491  0.52079203     1.36900
C388        C  0.84610746  0.37677409  0.91806647     0.79400
O389        O  0.86064941  0.31407522  0.03214089    -0.59000
O390        O  0.88571442  0.31311827  0.55877474    -0.49900
C391        C  0.94825148  0.36258097  0.52107329     0.72100
O392        O  0.92151911  0.36641163  0.95466545    -0.44800
C393        C  0.86422215  0.39168694  0.59927722     0.76800
O394        O  0.84015271  0.35315095  0.94600683    -0.56600
O395        O  0.85446318  0.36602699  0.58276000    -0.46700
O396        O  0.86895907  0.39108985  0.93217083    -0.53100
C397        C  0.87598393  0.29713508  0.00219645     0.87000
O398        O  0.93372946  0.35829993  0.56300358    -0.55000
O399        O  0.88710642  0.40088024  0.57634051    -0.58300
In400      In  0.09477334  0.36046363  0.50651083     1.36900
C401        C  0.12864475  0.38352554  0.58295088     0.79400
O402        O  0.09024334  0.31695136  0.55556844    -0.59000
O403        O  0.08900546  0.31530774  0.93960998    -0.49900
C404        C  0.02646573  0.36842305  0.98819871     0.72100
O405        O  0.05364911  0.37314773  0.55029117    -0.44800
C406        C  0.11056608  0.39590479  0.91346623     0.76800
O407        O  0.10563646  0.39703068  0.56707408    -0.56600
O408        O  0.11195290  0.36658788  0.91270295    -0.46700
O409        O  0.13509341  0.35907545  0.55798714    -0.53100
C410        C  0.09576066  0.29909853  0.51729179     0.87000
O411        O  0.04046919  0.36554920  0.94537198    -0.55000
O412        O  0.09545324  0.40680935  0.95098798    -0.58300
C413        C  0.30125816  0.21364111  0.76391924     0.88300
C414        C  0.32288459  0.20060561  0.72289061    -0.51900
C415        C  0.32774452  0.16938261  0.72734174     0.11300
C416        C  0.31048608  0.15398864  0.77215715     0.22200
C417        C  0.27301145  0.19385528  0.75644300    -0.52600
C418        C  0.27838575  0.16213998  0.76085857     0.11400
C419        C  0.31354179  0.20329153  0.81820476    -0.52200
C420        C  0.31831243  0.17196531  0.82238180     0.11900
H421        H  0.33255785  0.21500457  0.69193071     0.16400
H422        H  0.31481594  0.12853995  0.77562949     0.02200
H423        H  0.25151437  0.20376432  0.74861317     0.16800
H424        H  0.31778070  0.21956972  0.85015664     0.16500
C425        C  0.67151798  0.21419815  0.78687978     0.88300
C426        C  0.65556909  0.19858184  0.83357878    -0.51900
C427        C  0.64903749  0.16799866  0.82559601     0.11300
C428        C  0.65928587  0.15567474  0.77166016     0.22200
C429        C  0.69889224  0.19356395  0.77758074    -0.52600
C430        C  0.69222980  0.16261553  0.76967156     0.11400
C431        C  0.65154658  0.20838794  0.73848623    -0.52200
C432        C  0.64556086  0.17765570  0.72988022     0.11900
H433        H  0.65054813  0.21068545  0.87027639     0.16400
H434        H  0.65386148  0.13070121  0.76624519     0.02200
H435        H  0.72102557  0.20274770  0.77755445     0.16800
H436        H  0.64346336  0.22688903  0.71261385     0.16500
In437      In  0.59007432  0.11058870  0.52416355     1.36900
C438        C  0.61669108  0.12862351  0.61354876     0.79400
O439        O  0.57520719  0.06151780  0.53778389    -0.59000
O440        O  0.58481054  0.06057877  0.97215062    -0.49900
C441        C  0.52091914  0.11148766  0.01758229     0.72100
O442        O  0.54516432  0.11339203  0.55964357    -0.44800
C443        C  0.60384523  0.13936752  0.94462630     0.76800
O444        O  0.59531370  0.14323508  0.59356672    -0.56600
O445        O  0.61121520  0.11140959  0.95283558    -0.46700
O446        O  0.62422500  0.10466399  0.58827425    -0.53100
C447        C  0.59718112  0.04955534  0.51534386     0.87000
O448        O  0.53543284  0.10781395  0.97552564    -0.55000
O449        O  0.58370199  0.14932635  0.97419562    -0.58300
In450      In  0.38668800  0.11257706  0.52186597     1.36900
C451        C  0.35218509  0.15063386  0.95724025     0.79400
O452        O  0.38258589  0.06913220  0.07126727    -0.59000
O453        O  0.37865117  0.06574235  0.55897010    -0.49900
C454        C  0.44412111  0.11889465  0.51406614     0.72100
O455        O  0.41582248  0.11627469  0.98533786    -0.44800
C456        C  0.37361948  0.14399719  0.60858080     0.76800
O457        O  0.36830136  0.16206931  0.99284254    -0.56600
O458        O  0.36476999  0.11657820  0.60043350    -0.46700
O459        O  0.34731984  0.12185004  0.96193731    -0.53100
C460        C  0.37137733  0.05478780  0.03267338     0.87000
O461        O  0.43231514  0.09819627  0.54225482    -0.55000
O462        O  0.39050398  0.15486985  0.57343873    -0.58300
C463        C  0.28696969  0.30373748  0.74792745     0.88300
C464        C  0.30459640  0.31475724  0.79650398    -0.51900
C465        C  0.31398022  0.34488673  0.79322007     0.11300
C466        C  0.30417390  0.36155294  0.74174622     0.22200
C467        C  0.26145049  0.32739064  0.74342134    -0.52600
C468        C  0.27062192  0.35802334  0.74067425     0.11400
C469        C  0.30660554  0.31081301  0.69970340    -0.52200
C470        C  0.31532798  0.34104816  0.69598066     0.11900
H471        H  0.30908932  0.29954023  0.83011249     0.16400
H472        H  0.31172539  0.38610591  0.73939513     0.02200
H473        H  0.23864845  0.32030787  0.74386042     0.16800
H474        H  0.31274510  0.29336968  0.67054098     0.16500
C475        C  0.68398633  0.30434869  0.76582661     0.88300
C476        C  0.66704939  0.31773895  0.71816030    -0.51900
C477        C  0.66453901  0.34949064  0.71759920     0.11300
C478        C  0.67964629  0.36521456  0.76544156     0.22200
C479        C  0.71361827  0.32119305  0.76486109    -0.52600
C480        C  0.71173461  0.35306774  0.76491894     0.11400
C481        C  0.66800326  0.31779556  0.81471483    -0.52200
C482        C  0.66546929  0.34956556  0.81437140     0.11900
H483        H  0.65824639  0.30305460  0.68695988     0.16400
H484        H  0.67714248  0.39090714  0.76536824     0.02200
H485        H  0.73444704  0.30881134  0.76441633     0.16800
H486        H  0.65926519  0.30400076  0.84707316     0.16500
In487      In  0.58419047  0.39658502  0.00960609     1.36900
C488        C  0.61202992  0.37043839  0.92772718     0.79400
O489        O  0.59235379  0.44360979  0.97309332    -0.59000
O490        O  0.59990586  0.44230605  0.55169268    -0.49900
C491        C  0.52853054  0.39416746  0.51401897     0.72100
O492        O  0.54069797  0.40086543  0.96665729    -0.44800
C493        C  0.61295155  0.36997732  0.60011070     0.76800
O494        O  0.58882396  0.35959918  0.94751932    -0.56600
O495        O  0.62361978  0.39338231  0.57660811    -0.46700
O496        O  0.62104725  0.39505046  0.94933242    -0.53100
C497        C  0.58742610  0.45818926  0.01555055     0.87000
O498        O  0.54296837  0.40003260  0.55549114    -0.55000
O499        O  0.58931072  0.36017058  0.58024831    -0.58300
In500      In  0.38099875  0.40990593  0.50175562     1.36900
C501        C  0.34854090  0.39108500  0.58424549     0.79400
O502        O  0.38405170  0.45751265  0.53826344    -0.59000
O503        O  0.35373260  0.44279041  0.97134735    -0.49900
C504        C  0.43595414  0.39137037  0.00179122     0.72100
O505        O  0.42298994  0.40092035  0.54706645    -0.44800
C506        C  0.35368789  0.36645018  0.92394809     0.76800
O507        O  0.37050542  0.37613513  0.56767920    -0.56600
O508        O  0.36141929  0.39436675  0.91767174    -0.46700
O509        O  0.34296786  0.41566021  0.55844500    -0.53100
C510        C  0.38165528  0.47188667  0.49464161     0.87000
O511        O  0.42096108  0.39138943  0.95967007    -0.55000
O512        O  0.35898936  0.35542467  0.96954523    -0.58300
C513        C  0.46753090  0.38894668  0.00202413    -0.11400
C514        C  0.49690236  0.39481917  0.51217442    -0.13000
C515        C  0.62729699  0.35461642  0.88381586    -0.14600
C516        C  0.64988618  0.36719424  0.85674265    -0.29800
H517        H  0.61923614  0.33169219  0.87324008     0.14400
H518        H  0.65655501  0.39100262  0.86459755     0.15000
C519        C  0.64912030  0.36703541  0.67440656    -0.14600
C520        C  0.62702369  0.35436002  0.64612749    -0.29800
H521        H  0.65596245  0.39079017  0.66612668     0.14400
H522        H  0.61867779  0.33153070  0.65699338     0.15000
C523        C  0.33119830  0.36116507  0.83506813    -0.14600
C524        C  0.33891469  0.34825677  0.88212334    -0.29800
H525        H  0.33695629  0.38529133  0.82713704     0.14400
H526        H  0.33337015  0.32435529  0.89170832     0.15000
C527        C  0.33365567  0.35217801  0.65115544    -0.14600
C528        C  0.33081673  0.38090530  0.63023948    -0.29800
H529        H  0.34852285  0.33559392  0.63274901     0.14400
H530        H  0.31450528  0.39690537  0.64588169     0.15000
C531        C  0.38257845  0.50537430  0.49121713    -0.11400
C532        C  0.37100391  0.02153542  0.02980159    -0.13000
C533        C  0.58871779  0.49157818  0.01838495    -0.11400
C534        C  0.60013453  0.01651548  0.50908087    -0.13000
C535        C  0.47524046  0.12141394  0.51028605    -0.11400
C536        C  0.48986132  0.11578420  0.01764993    -0.13000
C537        C  0.67685786  0.24848020  0.79803795    -0.14600
C538        C  0.68665193  0.26890013  0.76129425    -0.29800
H539        H  0.66991690  0.25677901  0.83651119     0.14400
H540        H  0.69464506  0.25979707  0.72370491     0.15000
C541        C  0.63212591  0.13857164  0.66208993    -0.14600
C542        C  0.62836595  0.16702997  0.68321682    -0.29800
H543        H  0.64824976  0.12259896  0.67869265     0.14400
H544        H  0.61374224  0.18362666  0.66383710     0.15000
C545        C  0.63464193  0.14779221  0.86565097    -0.14600
C546        C  0.61759643  0.15934770  0.90433928    -0.29800
H547        H  0.63758186  0.12273951  0.86223702     0.14400
H548        H  0.61276944  0.18410272  0.90600942     0.15000
C549        C  0.30139695  0.24884182  0.75972313    -0.14600
C550        C  0.27916586  0.26916991  0.75180757    -0.29800
H551        H  0.32333678  0.25858717  0.76350126     0.14400
H552        H  0.25662846  0.26133117  0.74850262     0.15000
C553        C  0.36325034  0.16276424  0.65339336    -0.14600
C554        C  0.34476449  0.15055993  0.68926436    -0.27400
H555        H  0.36892417  0.18729040  0.65402387     0.14400
H556        H  0.34037380  0.12568284  0.68888033     0.15000
C557        C  0.32938042  0.15531694  0.86995126    -0.14600
C558        C  0.34050144  0.16934514  0.91297856    -0.29800
H559        H  0.32908682  0.13001332  0.86847397     0.14400
H560        H  0.34239388  0.19447868  0.91503033     0.15000
C561        C  0.99506293  0.37117380  0.99019179    -0.11400
C562        C  0.97951226  0.36449709  0.52058634    -0.13000
C563        C  0.73942412  0.40376994  0.76025918    -0.14600
C564        C  0.73895291  0.37247895  0.76549957    -0.29800
H565        H  0.71893128  0.41636279  0.75533837     0.14400
H566        H  0.75943308  0.35986167  0.76986396     0.15000
C567        C  0.83211815  0.41499590  0.85028707    -0.14600
C568        C  0.82770988  0.38702682  0.87276540    -0.29800
H569        H  0.84898586  0.43006442  0.86664408     0.14400
H570        H  0.80994580  0.37220088  0.85935695     0.15000
C571        C  0.85016312  0.41058817  0.64069463    -0.14600
C572        C  0.82801480  0.40041003  0.67143048    -0.29800
H573        H  0.85872783  0.43392640  0.64597641     0.14400
H574        H  0.82085732  0.37636508  0.66894024     0.15000
C575        C  0.22208631  0.38568376  0.73965713    -0.14600
C576        C  0.25153596  0.38643674  0.74011108    -0.29800
H577        H  0.21112787  0.36336891  0.73739015     0.14400
H578        H  0.26255774  0.40876239  0.74150773     0.15000
C579        C  0.14620661  0.39447553  0.62830197    -0.14600
C580        C  0.14110547  0.42192462  0.65196448    -0.29800
H581        H  0.16370450  0.37938332  0.64273464     0.14400
H582        H  0.12493235  0.43794566  0.63544714     0.15000
C583        C  0.14130035  0.40399874  0.83387468    -0.14600
C584        C  0.12575176  0.41602285  0.87443587    -0.29800
H585        H  0.14159398  0.37891785  0.82831452     0.14400
H586        H  0.12415817  0.44103420  0.87968842     0.15000
C587        C  0.09441383  0.26588890  0.52230683    -0.11400
C588        C  0.08773012  0.23687528  0.97980382    -0.13000
C589        C  0.87631978  0.23847745  0.50511648    -0.11400
C590        C  0.87507201  0.26372091  0.00376325    -0.13000
C591        C  0.99191941  0.13880461  0.49412876    -0.11400
C592        C  0.97113236  0.13419145  0.00344054    -0.13000
C593        C  0.74243533  0.13913784  0.75974265    -0.14600
C594        C  0.71312144  0.13655478  0.75978421    -0.29800
H595        H  0.75239422  0.16170602  0.76637728     0.14400
H596        H  0.70334308  0.11403670  0.75204371     0.15000
C597        C  0.77470390  0.02439771  0.74222850    -0.14600
C598        C  0.79912266  0.50487003  0.74273411    -0.29800
H599        H  0.75260809  0.01650332  0.75036522     0.14400
H600        H  0.82138247  0.51352180  0.73788524     0.15000
C601        C  0.81717984  0.11656363  0.64378511    -0.14600
C602        C  0.83249148  0.10074566  0.60705801    -0.29800
H603        H  0.81600841  0.14183258  0.64160303     0.14400
H604        H  0.83573105  0.07577972  0.61095312     0.15000
C605        C  0.82798502  0.11415293  0.82829645    -0.14600
C606        C  0.84505133  0.09842901  0.86294771    -0.29800
H607        H  0.82584760  0.13927200  0.83196248     0.14400
H608        H  0.84886614  0.07362726  0.85840235     0.15000
C609        C  0.22859756  0.13822702  0.74755199    -0.14600
C610        C  0.25738165  0.13573570  0.75670796    -0.29800
H611        H  0.21894001  0.16117638  0.74212458     0.14400
H612        H  0.26656253  0.11271298  0.76346240     0.15000
C613        C  0.19558357  0.02211302  0.75541547    -0.14600
C614        C  0.19290587  0.50103894  0.76787907    -0.29800
H615        H  0.21753221  0.01286858  0.74979217     0.14400
H616        H  0.19082723  0.50874393  0.80872608     0.15000
C617        C  0.14393401  0.11345276  0.66636242    -0.14600
C618        C  0.12509901  0.09836431  0.63459122    -0.29800
H619        H  0.14621664  0.13856391  0.66243709     0.14400
H620        H  0.12127370  0.07357388  0.63963991     0.15000
C621        C  0.15120170  0.11488736  0.84882725    -0.14600
C622        C  0.13372422  0.09938174  0.88261425    -0.29800
H623        H  0.15321656  0.14005216  0.85179668     0.14400
H624        H  0.12973176  0.07464979  0.87739653     0.15000
C625        C  0.18429225  0.54776040  0.24441657     0.88300
C626        C  0.16571856  0.55926382  0.19687048    -0.51900
C627        C  0.15684528  0.58965862  0.20078879     0.11300
C628        C  0.16707374  0.60544191  0.25214717     0.22200
C629        C  0.20985614  0.57109359  0.24754353    -0.52600
C630        C  0.20053706  0.60159088  0.25145956     0.11400
C631        C  0.16565148  0.55448870  0.29388916    -0.52200
C632        C  0.15648153  0.58442079  0.29780083     0.11900
H633        H  0.16044509  0.54442719  0.16341506     0.16400
H634        H  0.15956265  0.63001635  0.25524625     0.02200
H635        H  0.23269609  0.56400071  0.24665027     0.16800
H636        H  0.15997706  0.53685587  0.32333296     0.16500
C637        C  0.79982778  0.54402562  0.22945561     0.88300
C638        C  0.82001803  0.55489203  0.27509118    -0.51900
C639        C  0.82771827  0.58565441  0.27211626     0.11300
C640        C  0.81570455  0.60236467  0.22250470     0.22200
C641        C  0.77395902  0.56725855  0.22953075    -0.52600
C642        C  0.78242419  0.59800082  0.22647187     0.11400
C643        C  0.81724063  0.55187685  0.17916759    -0.52200
C644        C  0.82539353  0.58222630  0.17513862     0.11900
H645        H  0.82804445  0.53971451  0.30634360     0.16400
H646        H  0.82259579  0.62713302  0.21973394     0.02200
H647        H  0.75129509  0.55978276  0.23207101     0.16800
H648        H  0.82279417  0.53472938  0.14910567     0.16500
In649      In  0.89201474  0.64991257  0.98317385     1.36900
C650        C  0.85873866  0.63175801  0.06408379     0.79400
O651        O  0.89584970  0.69553883  0.02501652    -0.59000
O652        O  0.89638062  0.68767802  0.51646560    -0.49900
C653        C  0.94147650  0.63291825  0.48210793     0.72100
O654        O  0.93446173  0.64163048  0.02633178    -0.44800
C655        C  0.86047032  0.60917758  0.40728524     0.76800
O656        O  0.88134954  0.61706816  0.04964432    -0.56600
O657        O  0.86896676  0.63701891  0.40266323    -0.46700
O658        O  0.85286303  0.65562840  0.03668212    -0.53100
C659        C  0.89320821  0.71154800  0.98319773     0.87000
O660        O  0.92547931  0.63387040  0.44132255    -0.55000
O661        O  0.86394380  0.59743676  0.45282482    -0.58300
In662      In  0.09563816  0.65204964  0.99368885     1.36900
C663        C  0.12069160  0.63168623  0.40851076     0.79400
O664        O  0.08413026  0.69573256  0.45004803    -0.59000
O665        O  0.11812060  0.69597346  0.02082005    -0.49900
C666        C  0.03854134  0.63990500  0.99082366     0.72100
O667        O  0.04573377  0.64055827  0.44210403    -0.44800
C668        C  0.12137127  0.61699325  0.06891338     0.76800
O669        O  0.09899673  0.61584172  0.42390149    -0.56600
O670        O  0.11292261  0.64453949  0.07711009    -0.46700
O671        O  0.12544020  0.65598699  0.43494021    -0.53100
C672        C  0.08298873  0.71015231  0.49341833     0.87000
O673        O  0.05313575  0.63846411  0.03341718    -0.55000
O674        O  0.11642444  0.60733218  0.02263250    -0.58300
C675        C  0.17995788  0.97167130  0.28335433     0.88300
C676        C  0.16467964  0.95434406  0.32888725    -0.51900
C677        C  0.16055359  0.92330452  0.32040422     0.11300
C678        C  0.17331308  0.91197883  0.26692298     0.22200
C679        C  0.20894943  0.95415467  0.27560210    -0.52600
C680        C  0.20586462  0.92271865  0.26751137     0.11400
C681        C  0.16146962  0.96415151  0.23408085    -0.52200
C682        C  0.15805032  0.93304158  0.22475981     0.11900
H683        H  0.15761100  0.96590222  0.36498192     0.16400
H684        H  0.16989838  0.88674083  0.26057606     0.02200
H685        H  0.23015938  0.96556201  0.27774951     0.16800
H686        H  0.15153539  0.98202248  0.20902649     0.16500
C687        C  0.78849099  0.96770768  0.23863715     0.88300
C688        C  0.80386852  0.95344629  0.19033754    -0.51900
C689        C  0.80775771  0.92181012  0.19304572     0.11300
C690        C  0.79504552  0.90718127  0.24452298     0.22200
C691        C  0.75925867  0.94987939  0.24291744    -0.52600
C692        C  0.76240948  0.91793708  0.24550945     0.11400
C693        C  0.80649666  0.95663588  0.28640242    -0.52200
C694        C  0.81014114  0.92525390  0.29017014     0.11900
H695        H  0.81098381  0.96775909  0.15714090     0.16400
H696        H  0.79859302  0.88168450  0.24697360     0.02200
H697        H  0.73795949  0.96125066  0.24297390     0.16800
H698        H  0.81622304  0.97265658  0.31474789     0.16500
In699      In  0.88448488  0.86728558  0.99492037     1.36900
C700        C  0.84485748  0.87392024  0.40024446     0.79400
O701        O  0.89394403  0.81123266  0.46965864    -0.59000
O702        O  0.87473884  0.81936358  0.02574510    -0.49900
C703        C  0.94176954  0.87886838  0.01008978     0.72100
O704        O  0.91909770  0.86896172  0.45220024    -0.44800
C705        C  0.85522130  0.89823063  0.07096791     0.76800
O706        O  0.86530238  0.89025922  0.41910931    -0.56600
O707        O  0.85527530  0.86893073  0.06821182    -0.46700
O708        O  0.84015679  0.84916188  0.42583704    -0.53100
C709        C  0.87314808  0.79631777  0.49057676     0.87000
O710        O  0.92557914  0.86744309  0.04570202    -0.55000
O711        O  0.86997981  0.91150903  0.03510068    -0.58300
In712      In  0.08976588  0.86934006  0.02681509     1.36900
C713        C  0.12290620  0.88549426  0.11102716     0.79400
O714        O  0.07625602  0.82155293  0.05442343    -0.59000
O715        O  0.08827174  0.82178998  0.46348276    -0.49900
C716        C  0.02183806  0.87304628  0.50467776     0.72100
O717        O  0.04563447  0.87881010  0.06599979    -0.44800
C718        C  0.10814056  0.89694581  0.43239702     0.76800
O719        O  0.10219245  0.90218432  0.09337906    -0.56600
O720        O  0.11566630  0.86991712  0.44671593    -0.46700
O721        O  0.12660884  0.86052208  0.08588807    -0.53100
C722        C  0.09380807  0.80765027  0.02387870     0.87000
O723        O  0.03707561  0.86650467  0.46455185    -0.55000
O724        O  0.08664420  0.90799762  0.45763222    -0.58300
C725        C  0.28023211  0.71315677  0.25151168     0.88300
C726        C  0.29903491  0.70689109  0.20220061    -0.51900
C727        C  0.30942683  0.67725718  0.19869630     0.11300
C728        C  0.29982344  0.65619212  0.24539817     0.22200
C729        C  0.25578196  0.68863306  0.24902612    -0.52600
C730        C  0.26622091  0.65850542  0.24612260     0.11400
C731        C  0.29925845  0.70309392  0.29911559    -0.52200
C732        C  0.30959352  0.67326088  0.29582936     0.11900
H733        H  0.30357739  0.72457368  0.17221173     0.16400
H734        H  0.30803174  0.63188266  0.24386620     0.02200
H735        H  0.23273459  0.69489061  0.24938704     0.16800
H736        H  0.30335889  0.71816503  0.33284215     0.16500
C737        C  0.69581395  0.70462321  0.25045614     0.88300
C738        C  0.67916476  0.69479644  0.30117403    -0.51900
C739        C  0.67165004  0.66392770  0.30253238     0.11300
C740        C  0.68167746  0.64586217  0.25330643     0.22200
C741        C  0.72243020  0.68231696  0.24813044    -0.52600
C742        C  0.71478408  0.65134260  0.24950112     0.11400
C743        C  0.67603951  0.69428982  0.20396912    -0.52200
C744        C  0.66862655  0.66341691  0.20560250     0.11900
H745        H  0.67377259  0.71115735  0.33243046     0.16400
H746        H  0.67558556  0.62079778  0.25436691     0.02200
H747        H  0.74492309  0.69040512  0.24592839     0.16800
H748        H  0.66929793  0.70999242  0.17219994     0.16500
In749      In  0.58299278  0.61479231  0.01817926     1.36900
C750        C  0.61506831  0.64423517  0.09161919     0.79400
O751        O  0.57915375  0.56844868  0.05994970    -0.59000
O752        O  0.61708083  0.56866516  0.48305866    -0.49900
C753        C  0.53920281  0.62774989  0.48657938     0.72100
O754        O  0.54063895  0.62364007  0.06183253    -0.44800
C755        C  0.62748656  0.64494089  0.42962228     0.76800
O756        O  0.59373770  0.65663921  0.06787178    -0.56600
O757        O  0.62052518  0.61665981  0.42509048    -0.46700
O758        O  0.62007488  0.61644199  0.07833458    -0.53100
C759        C  0.58760479  0.55312113  0.02009775     0.87000
O760        O  0.55666308  0.62326589  0.44854264    -0.55000
O761        O  0.61797144  0.65778672  0.47106509    -0.58300
In762      In  0.37855369  0.61617410  0.00283270     1.36900
C763        C  0.36072477  0.65707777  0.41415603     0.79400
O764        O  0.38765694  0.58270423  0.44725217    -0.59000
O765        O  0.35088357  0.57306966  0.99774367    -0.49900
C766        C  0.43604116  0.62372601  0.01382445     0.72100
O767        O  0.43389830  0.63391572  0.44155529    -0.44800
C768        C  0.35162072  0.63085753  0.09331964     0.76800
O769        O  0.35663735  0.62902868  0.42719775    -0.56600
O770        O  0.35848994  0.60333375  0.08178518    -0.46700
O771        O  0.38080319  0.67052347  0.43949071    -0.53100
C772        C  0.38673771  0.56690545  0.48965804     0.87000
O773        O  0.41923731  0.62031992  0.05306458    -0.55000
O774        O  0.35865711  0.65087674  0.05877630    -0.58300
C775        C  0.28879924  0.80373661  0.25544306     0.88300
C776        C  0.30490202  0.81714030  0.30346772    -0.51900
C777        C  0.30668526  0.84884260  0.30385215     0.11300
C778        C  0.29150680  0.86436942  0.25551153     0.22200
C779        C  0.25838500  0.81953969  0.25595819    -0.52600
C780        C  0.25956792  0.85158784  0.25615453     0.11400
C781        C  0.30425632  0.81750559  0.20684863    -0.52200
C782        C  0.30607654  0.84922374  0.20654315     0.11900
H783        H  0.31384705  0.80241671  0.33485495     0.16400
H784        H  0.29379727  0.89002423  0.25536393     0.02200
H785        H  0.23784664  0.80683018  0.25653550     0.16800
H786        H  0.31269854  0.80293864  0.17516303     0.16500
C787        C  0.68267939  0.79578869  0.24806131     0.88300
C788        C  0.66596290  0.80837673  0.19972112    -0.51900
C789        C  0.66296776  0.84005021  0.19813942     0.11300
C790        C  0.67778842  0.85644235  0.24568658     0.22200
C791        C  0.71249362  0.81282281  0.24645353    -0.52600
C792        C  0.71016234  0.84488232  0.24542333     0.11400
C793        C  0.66684426  0.80951573  0.29626622    -0.52200
C794        C  0.66396800  0.84124736  0.29550687     0.11900
H795        H  0.65746228  0.79295804  0.16937699     0.16400
H796        H  0.67477558  0.88204065  0.24446179     0.02200
H797        H  0.73350210  0.80086522  0.24643878     0.16800
H798        H  0.65884972  0.79472552  0.32815398     0.16500
In799      In  0.59132748  0.89393286  0.49980679     1.36900
C800        C  0.61856847  0.86392917  0.42044098     0.79400
O801        O  0.59667352  0.94059489  0.45971339    -0.59000
O802        O  0.57819726  0.93183500  0.04351962    -0.49900
C803        C  0.52525755  0.88151657  0.99478184     0.72100
O804        O  0.54765852  0.89076948  0.45603410    -0.44800
C805        C  0.61270353  0.85930419  0.07762134     0.76800
O806        O  0.60133383  0.85084089  0.45262543    -0.56600
O807        O  0.61671426  0.88750749  0.06562683    -0.46700
O808        O  0.62209919  0.89261502  0.42858263    -0.53100
C809        C  0.59804106  0.95528392  0.50288346     0.87000
O810        O  0.53999512  0.87651149  0.03636155    -0.55000
O811        O  0.59411087  0.84563997  0.04894474    -0.58300
In812      In  0.37838212  0.90002664  0.00114957     1.36900
C813        C  0.35379878  0.87103715  0.08467534     0.79400
O814        O  0.35200900  0.94402930  0.00816661    -0.59000
O815        O  0.36797301  0.94091843  0.47234130    -0.49900
C816        C  0.44217638  0.89133497  0.50043826     0.72100
O817        O  0.42325325  0.89653240  0.03819775    -0.44800
C818        C  0.35734886  0.86904705  0.42230871     0.76800
O819        O  0.34696360  0.89834550  0.07098951    -0.56600
O820        O  0.34699043  0.89280165  0.44495037    -0.46700
O821        O  0.37295340  0.85854726  0.05564151    -0.53100
C822        C  0.37410448  0.96085071  0.01647608     0.87000
O823        O  0.42634461  0.89950281  0.46168540    -0.55000
O824        O  0.38072195  0.85872715  0.44279063    -0.58300
C825        C  0.47388957  0.89042356  0.49779615    -0.11400
C826        C  0.49362362  0.88081760  0.99384150    -0.13000
C827        C  0.63320996  0.84631637  0.37755928    -0.14600
C828        C  0.64911974  0.85964159  0.33826667    -0.29800
H829        H  0.62995420  0.82136592  0.37858112     0.14400
H830        H  0.65105251  0.88483512  0.33677785     0.15000
C831        C  0.64682037  0.85719807  0.15516592    -0.14600
C832        C  0.62835620  0.84294636  0.12104792    -0.29800
H833        H  0.64986614  0.88224214  0.15227544     0.14400
H834        H  0.62387714  0.81826039  0.12494046     0.15000
C835        C  0.32144770  0.86636024  0.34739625    -0.14600
C836        C  0.34338429  0.85360921  0.37645040    -0.29800
H837        H  0.31434635  0.89008987  0.35518090     0.14400
H838        H  0.35195811  0.83081183  0.36607765     0.15000
C839        C  0.32046414  0.86729261  0.16293719    -0.14600
C840        C  0.34051530  0.85439718  0.13015731    -0.29800
H841        H  0.31454478  0.89168183  0.15809217     0.14400
H842        H  0.34778019  0.83057597  0.13649649     0.15000
C843        C  0.37190166  0.99371382  0.02463343    -0.11400
C844        C  0.38411515  0.53347662  0.48992750    -0.13000
C845        C  0.60033673  0.98855631  0.50508629    -0.11400
C846        C  0.58886194  0.51967100  0.01990906    -0.13000
C847        C  0.46730823  0.62491529  0.01921295    -0.11400
C848        C  0.50825174  0.63266456  0.47940440    -0.13000
C849        C  0.70302370  0.73937715  0.24880339    -0.14600
C850        C  0.68094519  0.76036584  0.24965469    -0.29800
H851        H  0.72568298  0.74691027  0.24672123     0.14400
H852        H  0.65869422  0.75127423  0.25140955     0.15000
C853        C  0.63251215  0.66139960  0.13124393    -0.14600
C854        C  0.65115592  0.64690248  0.16459866    -0.29800
H855        H  0.62903051  0.68636729  0.13405787     0.14400
H856        H  0.65297266  0.62166116  0.16338578     0.15000
C857        C  0.65488826  0.64802242  0.34549327    -0.14600
C858        C  0.64510683  0.66198377  0.38981686    -0.29800
H859        H  0.65003289  0.62350880  0.33958863     0.14400
H860        H  0.64962105  0.68636071  0.39723358     0.15000
C861        C  0.27068421  0.74701026  0.25438276    -0.14600
C862        C  0.29185986  0.76876296  0.25538441    -0.29800
H863        H  0.24761706  0.75328352  0.25431892     0.14400
H864        H  0.31454626  0.76070655  0.25523886     0.15000
C865        C  0.33615443  0.63866693  0.14284225    -0.14600
C866        C  0.32719335  0.66788958  0.15214731    -0.27400
H867        H  0.33133162  0.61987817  0.17039283     0.14400
H868        H  0.33221698  0.68593632  0.12301172     0.15000
C869        C  0.32703293  0.65753968  0.33787885    -0.14600
C870        C  0.34355366  0.67322069  0.37284292    -0.29800
H871        H  0.32697146  0.63222279  0.33879913     0.14400
H872        H  0.34546780  0.69838196  0.37016010     0.15000
C873        C  0.99025464  0.87478184  0.50266145    -0.11400
C874        C  0.97318285  0.88208394  0.01662641    -0.13000
C875        C  0.73602817  0.89697905  0.24763223    -0.14600
C876        C  0.73688137  0.86547382  0.24432429    -0.29800
H877        H  0.71501435  0.90858037  0.25141334     0.14400
H878        H  0.75791534  0.85386007  0.24059316     0.15000
C879        C  0.82905610  0.91232914  0.33330473    -0.14600
C880        C  0.82725450  0.88328306  0.35302533    -0.29800
H881        H  0.84395677  0.92856712  0.35240948     0.14400
H882        H  0.81146078  0.86697757  0.33685874     0.15000
C883        C  0.83952938  0.91620951  0.11227719    -0.14600
C884        C  0.82319232  0.90312854  0.15129191    -0.29800
H885        H  0.84221262  0.94122645  0.11025437     0.14400
H886        H  0.82156917  0.87793369  0.15363507     0.15000
C887        C  0.23245990  0.90239258  0.26294922    -0.14600
C888        C  0.23219235  0.87110391  0.25775005    -0.29800
H889        H  0.25325953  0.91433471  0.26570320     0.14400
H890        H  0.21138816  0.85900521  0.25575818     0.15000
C891        C  0.14151501  0.89423507  0.15707209    -0.14600
C892        C  0.13925246  0.92236474  0.17993663    -0.29800
H893        H  0.15789834  0.87766742  0.17099419     0.14400
H894        H  0.12368424  0.93910865  0.16353280     0.15000
C895        C  0.14449834  0.90314161  0.35899442    -0.14600
C896        C  0.12325648  0.91492537  0.39052179    -0.29800
H897        H  0.14997282  0.87850026  0.36100852     0.14400
H898        H  0.11637079  0.93902608  0.38564915     0.15000
C899        C  0.09560277  0.77429438  0.02121652    -0.11400
C900        C  0.08129891  0.74331912  0.49547722    -0.13000
C901        C  0.89301126  0.74488554  0.98416495    -0.11400
C902        C  0.87243830  0.76285710  0.49127701    -0.13000
C903        C  0.00730805  0.63607911  0.98902269    -0.11400
C904        C  0.97273100  0.63119075  0.47941640    -0.13000
C905        C  0.76262718  0.62560921  0.22887243    -0.14600
C906        C  0.73507523  0.62421923  0.24738640    -0.29800
H907        H  0.77158081  0.64785602  0.21630989     0.14400
H908        H  0.72621517  0.60199129  0.26014383     0.15000
C909        C  0.79105012  0.50968636  0.22960908    -0.14600
C910        C  0.78906625  0.00312674  0.23573624    -0.29800
H911        H  0.78549299  0.49941780  0.19152416     0.14400
H912        H  0.81102400  0.01284627  0.23235599     0.15000
C913        C  0.84317396  0.59321293  0.12987712    -0.14600
C914        C  0.84070673  0.62202044  0.10965211    -0.29800
H915        H  0.85764983  0.57645661  0.11088391     0.14400
H916        H  0.82471665  0.63828940  0.12560135     0.15000
C917        C  0.84398843  0.60261555  0.31425169    -0.14600
C918        C  0.84708053  0.59132972  0.36395267    -0.29800
H919        H  0.85177649  0.62596430  0.30501650     0.14400
H920        H  0.83862961  0.56853411  0.37465441     0.15000
C921        C  0.21923404  0.62972386  0.25357909    -0.14600
C922        C  0.24816040  0.62978367  0.24441757    -0.29800
H923        H  0.20804547  0.65143087  0.26212635     0.14400
H924        H  0.25944648  0.60807350  0.23609646     0.15000
C925        C  0.19195300  0.51336535  0.24073275    -0.14600
C926        C  0.18217886  0.00626295  0.29512360    -0.29800
H927        H  0.21454458  0.50551777  0.23820174     0.14400
H928        H  0.17415718  0.01343489  0.33353205     0.15000
C929        C  0.14037205  0.60746059  0.15945295    -0.14600
C930        C  0.13613398  0.59745972  0.10944055    -0.29800
H931        H  0.13258865  0.63052294  0.17028861     0.14400
H932        H  0.14414191  0.57481892  0.09704929     0.15000
C933        C  0.13747668  0.59435921  0.34200172    -0.14600
C934        C  0.13905814  0.62287239  0.36299990    -0.29800
H935        H  0.12312680  0.57704554  0.35989266     0.14400
H936        H  0.15482336  0.63965953  0.34794402     0.15000
C937        C  0.18665468  0.55710889  0.73635068     0.88300
C938        C  0.16957493  0.56919982  0.68770405    -0.51900
C939        C  0.16088830  0.59965630  0.69120535     0.11300
C940        C  0.17020480  0.61542721  0.74332292     0.22200
C941        C  0.21229498  0.58023834  0.74231770    -0.52600
C942        C  0.20357591  0.61098826  0.74553468     0.11400
C943        C  0.16606763  0.56396191  0.78346280    -0.52200
C944        C  0.15795699  0.59441097  0.78779294     0.11900
H945        H  0.16548756  0.55491452  0.65298516     0.16400
H946        H  0.16308231  0.64014902  0.74582603     0.02200
H947        H  0.23503288  0.57272111  0.74359811     0.16800
H948        H  0.15814494  0.54648159  0.81122180     0.16500
C949        C  0.78455601  0.56035729  0.74498634     0.88300
C950        C  0.80525222  0.57032121  0.79017146    -0.51900
C951        C  0.81231674  0.60129390  0.78903184     0.11300
C952        C  0.79791990  0.61928625  0.74282946     0.22200
C953        C  0.75788411  0.58206619  0.75001756    -0.52600
C954        C  0.76492230  0.61315262  0.74882645     0.11400
C955        C  0.79982930  0.57073622  0.69355693    -0.52200
C956        C  0.80708335  0.60160256  0.69259454     0.11900
H957        H  0.81283971  0.55419815  0.82064880     0.16400
H958        H  0.80370462  0.64442815  0.74173740     0.02200
H959        H  0.73580230  0.57325880  0.75509683     0.16800
H960        H  0.80426116  0.55498646  0.66085407     0.16500
In961      In  0.88385802  0.64009777  0.48807125     1.36900
C962        C  0.85680429  0.61593917  0.57213274     0.79400
O963        O  0.85972224  0.68394150  0.46448929    -0.59000
O964        O  0.89022757  0.69619984  0.94092433    -0.49900
C965        C  0.94959816  0.63955540  0.98477590     0.72100
O966        O  0.92813245  0.63490087  0.52568472    -0.44800
C967        C  0.86393704  0.61966504  0.90625822     0.76800
O968        O  0.84918348  0.64165626  0.55174558    -0.56600
O969        O  0.86198928  0.64875267  0.91226609    -0.46700
O970        O  0.87827247  0.60291148  0.54988635    -0.53100
C971        C  0.87638954  0.70145231  0.49087939     0.87000
O972        O  0.93537662  0.64192891  0.94195362    -0.55000
O973        O  0.88071337  0.60610631  0.93892660    -0.58300
In974      In  0.08690867  0.64890279  0.48888299     1.36900
C975        C  0.12428965  0.64038586  0.90317757     0.79400
O976        O  0.07479045  0.69937706  0.98980561    -0.59000
O977        O  0.08373841  0.69340530  0.53471883    -0.49900
C978        C  0.03001648  0.63729381  0.48280060     0.72100
O979        O  0.05315190  0.64653725  0.94991405    -0.44800
C980        C  0.11408866  0.61923466  0.56796616     0.76800
O981        O  0.10566053  0.62215628  0.92313894    -0.56600
O982        O  0.11865333  0.64757023  0.55745557    -0.46700
O983        O  0.12827756  0.66497193  0.92932279    -0.53100
C984        C  0.09653917  0.71322239  0.00931409     0.87000
O985        O  0.04329781  0.63939950  0.52651418    -0.55000
O986        O  0.09579770  0.60614000  0.53794497    -0.58300
C987        C  0.17021549  0.96761624  0.76095758     0.88300
C988        C  0.15430575  0.95553099  0.81074987    -0.51900
C989        C  0.14728076  0.92456772  0.80944146     0.11300
C990        C  0.15682768  0.90855352  0.75741321     0.22200
C991        C  0.19741712  0.94587645  0.75561370    -0.52600
C992        C  0.19016768  0.91450869  0.75418838     0.11400
C993        C  0.15020103  0.95881509  0.71462003    -0.52200
C994        C  0.14320434  0.92820357  0.71205976     0.11900
H995        H  0.14914444  0.97074296  0.84377469     0.16400
H996        H  0.15074336  0.88352699  0.75594031     0.02200
H997        H  0.21976693  0.95440771  0.75402614     0.16800
H998        H  0.14207945  0.97574910  0.68572729     0.16500
C999        C  0.79601547  0.96882451  0.73944407     0.88300
C1000       C  0.80929924  0.95286089  0.69061113    -0.51900
C1001       C  0.81209455  0.92109823  0.69525297     0.11300
C1002       C  0.80074034  0.90835697  0.74912467     0.22200
C1003       C  0.76647628  0.95240865  0.74817665    -0.52600
C1004       C  0.76862209  0.92061860  0.75256048     0.11400
C1005       C  0.81533958  0.95825249  0.78578518    -0.52200
C1006       C  0.81803473  0.92687392  0.79149978     0.11900
H1007       H  0.81628872  0.96625119  0.65626800     0.16400
H1008       H  0.80350332  0.88281763  0.75342250     0.02200
H1009       H  0.74552411  0.96444527  0.74906897     0.16800
H1010       H  0.82661612  0.97454503  0.81168506     0.16500
In1011     In  0.87493698  0.85819779  0.48856762     1.36900
C1012       C  0.85254922  0.87989357  0.90704150     0.79400
O1013       O  0.90175245  0.82390730  0.95697540    -0.59000
O1014       O  0.85316926  0.81288161  0.51068059    -0.49900
C1015       C  0.93246216  0.86949909  0.49611960     0.72100
O1016       O  0.92857802  0.88577143  0.96748274    -0.44800
C1017       C  0.84951577  0.89152317  0.56586780     0.76800
O1018       O  0.87447505  0.89577989  0.92107288    -0.56600
O1019       O  0.85545072  0.86297811  0.57168328    -0.46700
O1020       O  0.84696377  0.85745325  0.93778354    -0.53100
C1021       C  0.88950181  0.80604246  0.99002548     0.87000
O1022       O  0.91649042  0.86491255  0.53624197    -0.55000
O1023       O  0.85650922  0.90257915  0.52121744    -0.58300
In1024     In  0.08012211  0.86555385  0.50907569     1.36900
C1025       C  0.11028856  0.88111032  0.59676489     0.79400
O1026       O  0.07178489  0.81814316  0.54260481    -0.59000
O1027       O  0.10950637  0.82513573  0.99535978    -0.49900
C1028       C  0.03133651  0.87874838  0.02307553     0.72100
O1029       O  0.03630113  0.87683822  0.54685824    -0.44800
C1030       C  0.11325050  0.90140398  0.94563231     0.76800
O1031       O  0.09124669  0.89871434  0.57573790    -0.56600
O1032       O  0.10748574  0.87276702  0.94286548    -0.46700
O1033       O  0.11417198  0.85586569  0.57258711    -0.53100
C1034       C  0.08006537  0.80439663  0.50110641     0.87000
O1035       O  0.04677778  0.87466245  0.98227454    -0.55000
O1036       O  0.10692658  0.91359917  0.98965465    -0.58300
C1037       C  0.29457832  0.71562245  0.74256577     0.88300
C1038       C  0.31327967  0.70520489  0.69504508    -0.51900
C1039       C  0.31899592  0.67399662  0.69383002     0.11300
C1040       C  0.30545200  0.65598565  0.74040597     0.22200
C1041       C  0.26647100  0.69535110  0.73938079    -0.52600
C1042       C  0.27261642  0.66376664  0.73807636     0.11400
C1043       C  0.31089410  0.70320833  0.79179066    -0.52200
C1044       C  0.31658377  0.67196000  0.79100577     0.11900
H1045       H  0.32059201  0.72131271  0.66438222     0.16400
H1046       H  0.31028221  0.63058127  0.73945077     0.02200
H1047       H  0.24440868  0.70483463  0.73745625     0.16800
H1048       H  0.31665219  0.71823082  0.82471016     0.16500
C1049       C  0.67221130  0.71292903  0.77386525     0.88300
C1050       C  0.65489126  0.69758733  0.81896500    -0.51900
C1051       C  0.64840581  0.66705760  0.81060416     0.11300
C1052       C  0.66009256  0.65452556  0.75763411     0.22200
C1053       C  0.69959728  0.69232884  0.76722560    -0.52600
C1054       C  0.69312658  0.66146799  0.75887674     0.11400
C1055       C  0.65364724  0.70738982  0.72384704    -0.52200
C1056       C  0.64767905  0.67676513  0.71464393     0.11900
H1057       H  0.64913389  0.70969278  0.85534061     0.16400
H1058       H  0.65479133  0.62956571  0.75171695     0.02200
H1059       H  0.72166142  0.70156886  0.76962399     0.16800
H1060       H  0.64645885  0.72600927  0.69735097     0.16500
In1061     In  0.59574282  0.61465068  0.50247599     1.36900
C1062       C  0.62057912  0.63011152  0.59461623     0.79400
O1063       O  0.57580212  0.56828280  0.52240836    -0.59000
O1064       O  0.59424656  0.56921922  0.97985844    -0.49900
C1065       C  0.52495616  0.62006343  0.02104983     0.72100
O1066       O  0.55065069  0.62629620  0.53208099    -0.44800
C1067       C  0.60302924  0.64292008  0.93155288     0.76800
O1068       O  0.60301378  0.64780944  0.57009747    -0.56600
O1069       O  0.61362408  0.61749078  0.94820356    -0.46700
O1070       O  0.62538625  0.60449650  0.57216046    -0.53100
C1071       C  0.59671374  0.55272568  0.50330679     0.87000
O1072       O  0.53872515  0.61325668  0.97936543    -0.55000
O1073       O  0.58230703  0.65367419  0.95895372    -0.58300
In1074     In  0.39218613  0.62863228  0.48931162     1.36900
C1075       C  0.35523478  0.64895999  0.92239494     0.79400
O1076       O  0.39648112  0.56959756  0.97992894    -0.59000
O1077       O  0.38851787  0.58252942  0.53187173    -0.49900
C1078       C  0.45038504  0.63305752  0.48169240     0.72100
O1079       O  0.42350251  0.62441094  0.96918674    -0.44800
C1080       C  0.36758562  0.65649886  0.57256499     0.76800
O1081       O  0.36988555  0.66124941  0.95913820    -0.56600
O1082       O  0.36039343  0.62957267  0.55764965    -0.46700
O1083       O  0.35207243  0.61993844  0.92704515    -0.53100
C1084       C  0.37230178  0.55584670  0.98557132     0.87000
O1085       O  0.43729544  0.63028099  0.52543323    -0.55000
O1086       O  0.38747962  0.66902745  0.54522693    -0.58300
C1087       C  0.27729399  0.80583634  0.74951652     0.88300
C1088       C  0.29377100  0.81266693  0.80132848    -0.51900
C1089       C  0.30276955  0.84266212  0.80684001     0.11300
C1090       C  0.29367568  0.86382394  0.75945803     0.22200
C1091       C  0.25142694  0.82926542  0.74938024    -0.52600
C1092       C  0.26002706  0.86002560  0.75450112     0.11400
C1093       C  0.29750707  0.81749935  0.70474170    -0.52200
C1094       C  0.30626635  0.84778278  0.70965172     0.11900
H1095       H  0.29835720  0.79483040  0.83111163     0.16400
H1096       H  0.30060124  0.88846293  0.76322880     0.02200
H1097       H  0.22881937  0.82191523  0.74524108     0.16800
H1098       H  0.30347581  0.80289996  0.67132312     0.16500
C1099       C  0.68665892  0.80198389  0.75308153     0.88300
C1100       C  0.67033333  0.81498920  0.70450023    -0.51900
C1101       C  0.66772373  0.84671928  0.70335948     0.11300
C1102       C  0.68200906  0.86273612  0.75183572     0.22200
C1103       C  0.71622560  0.81880063  0.75287011    -0.52600
C1104       C  0.71420234  0.85062973  0.75253165     0.11400
C1105       C  0.67012252  0.81556311  0.80116847    -0.52200
C1106       C  0.66720626  0.84720388  0.80041828     0.11900
H1107       H  0.66221552  0.80007417  0.67301018     0.16400
H1108       H  0.67939801  0.88840975  0.75094964     0.02200
H1109       H  0.73708839  0.80647761  0.75265510     0.16800
H1110       H  0.66142634  0.80205580  0.83378553     0.16500
In1111     In  0.58374321  0.88749122  0.99805171     1.36900
C1112       C  0.61249446  0.86458372  0.91416314     0.79400
O1113       O  0.59072175  0.93463720  0.96204882    -0.59000
O1114       O  0.59641553  0.93873413  0.54426300    -0.49900
C1115       C  0.53224187  0.89130531  0.49750167     0.72100
O1116       O  0.54029704  0.88841226  0.95450069    -0.44800
C1117       C  0.61811957  0.86674267  0.58279475     0.76800
O1118       O  0.58962156  0.85234986  0.93310922    -0.56600
O1119       O  0.62821716  0.89082601  0.56044532    -0.46700
O1120       O  0.62096109  0.88862458  0.93826174    -0.53100
C1121       C  0.58449441  0.94885184  0.00422516     0.87000
O1122       O  0.54679250  0.89288045  0.53988192    -0.55000
O1123       O  0.59484705  0.85652266  0.56225595    -0.58300
In1124     In  0.38338501  0.89512148  0.50653996     1.36900
C1125       C  0.35598789  0.86660847  0.58840781     0.79400
O1126       O  0.39114389  0.94123105  0.54583852    -0.59000
O1127       O  0.39836270  0.94678154  0.01673789    -0.49900
C1128       C  0.43587146  0.88787820  0.99625208     0.72100
O1129       O  0.42812223  0.88453114  0.54199041    -0.44800
C1130       C  0.35056338  0.88577116  0.91026557     0.76800
O1131       O  0.35315882  0.89527319  0.57870886    -0.56600
O1132       O  0.36242540  0.91178079  0.91810835    -0.46700
O1133       O  0.37277461  0.85268777  0.55666914    -0.53100
C1134       C  0.37856549  0.95676966  0.50971573     0.87000
O1135       O  0.41917000  0.88490007  0.95654668    -0.55000
O1136       O  0.35373563  0.86663625  0.94816553    -0.58300
C1137       C  0.46713638  0.88279581  0.99395697    -0.11400
C1138       C  0.50049742  0.89047636  0.49679700    -0.13000
C1139       C  0.62802532  0.85077778  0.86842449    -0.14600
C1140       C  0.65077816  0.86424178  0.84271913    -0.29800
H1141       H  0.62015239  0.82817229  0.85558758     0.14400
H1142       H  0.65739077  0.88781155  0.85257340     0.15000
C1143       C  0.65325758  0.86400447  0.65878302    -0.14600
C1144       C  0.63211303  0.85096642  0.62869275    -0.29800
H1145       H  0.65978825  0.88794063  0.65130929     0.14400
H1146       H  0.62398424  0.82792198  0.63864653     0.15000
C1147       C  0.31966586  0.85173974  0.85511656    -0.14600
C1148       C  0.33402833  0.87878545  0.86091983    -0.29800
H1149       H  0.32089870  0.83468692  0.88721116     0.14400
H1150       H  0.33363444  0.89623397  0.82957019     0.15000
C1151       C  0.32419622  0.86468626  0.66899436    -0.14600
C1152       C  0.34059745  0.85003244  0.63202970    -0.29800
H1153       H  0.32349008  0.88998210  0.66926510     0.14400
H1154       H  0.34276441  0.82486327  0.63298007     0.15000
C1155       C  0.37694832  0.99016056  0.51072803    -0.11400
C1156       C  0.36989468  0.52267251  0.98144450    -0.13000
C1157       C  0.58424249  0.98207458  0.00706146    -0.11400
C1158       C  0.59727765  0.51926821  0.50522754    -0.13000
C1159       C  0.48182004  0.63415269  0.47820256    -0.11400
C1160       C  0.49366700  0.62341787  0.02160285    -0.13000
C1161       C  0.67780148  0.74683715  0.78529678    -0.14600
C1162       C  0.68929824  0.76667787  0.74944130    -0.29800
H1163       H  0.66973130  0.75521106  0.82284468     0.14400
H1164       H  0.69832618  0.75722746  0.71289592     0.15000
C1165       C  0.63477637  0.63849978  0.64514067    -0.14600
C1166       C  0.63172603  0.66697990  0.66621381    -0.29800
H1167       H  0.64903284  0.62130276  0.66369428     0.14400
H1168       H  0.61865360  0.68442697  0.64535881     0.15000
C1169       C  0.63370357  0.64747780  0.85112679    -0.14600
C1170       C  0.61436901  0.65989759  0.88527808    -0.29800
H1171       H  0.63946927  0.62294939  0.85373646     0.14400
H1172       H  0.60708106  0.68383793  0.88019039     0.15000
C1173       C  0.29355376  0.75099183  0.74450018    -0.14600
C1174       C  0.27052206  0.77097226  0.74444549    -0.29800
H1175       H  0.31531891  0.76126498  0.74713077     0.14400
H1176       H  0.24812595  0.76264535  0.74179671     0.15000
C1177       C  0.35367053  0.67256802  0.61760642    -0.14600
C1178       C  0.33473626  0.65799234  0.65014351    -0.27400
H1179       H  0.35925118  0.69684711  0.62392577     0.14400
H1180       H  0.33066574  0.63324394  0.64506461     0.15000
C1181       C  0.33027817  0.65403551  0.83547362    -0.14600
C1182       C  0.34293777  0.66742505  0.87800762    -0.29800
H1183       H  0.32969466  0.62879395  0.83301774     0.14400
H1184       H  0.34488484  0.69250676  0.88064285     0.15000
C1185       C  0.99971801  0.88190071  0.02062409    -0.11400
C1186       C  0.96377239  0.87369122  0.50000888    -0.13000
C1187       C  0.74157449  0.90116439  0.75695676    -0.14600
C1188       C  0.74133484  0.87004440  0.75088461    -0.29800
H1189       H  0.72109686  0.91338453  0.76385317     0.14400
H1190       H  0.76180504  0.85782786  0.74391987     0.15000
C1191       C  0.83817042  0.91430901  0.83306013    -0.14600
C1192       C  0.83426250  0.88743488  0.85962023    -0.29800
H1193       H  0.85550825  0.92982122  0.84627320     0.14400
H1194       H  0.81617391  0.87218791  0.84930574     0.15000
C1195       C  0.83578662  0.91129950  0.60692083    -0.14600
C1196       C  0.82555248  0.90050777  0.65388588    -0.29800
H1197       H  0.83410615  0.93577267  0.59688505     0.14400
H1198       H  0.82716909  0.87576783  0.66266882     0.15000
C1199       C  0.21068042  0.88702024  0.75195099    -0.14600
C1200       C  0.24020718  0.88822731  0.75484916    -0.29800
H1201       H  0.20028799  0.86441448  0.74927602     0.14400
H1202       H  0.25068013  0.91078426  0.75826668     0.15000
C1203       C  0.12709076  0.88921362  0.64525281    -0.14600
C1204       C  0.12386654  0.91699885  0.66867243    -0.29800
H1205       H  0.14343597  0.87282255  0.65999536     0.14400
H1206       H  0.10844936  0.93370104  0.65164813     0.15000
C1207       C  0.13280902  0.90707245  0.85380655    -0.14600
C1208       C  0.12647784  0.91956052  0.90164491    -0.29800
H1209       H  0.12784580  0.88267435  0.84697987     0.14400
H1210       H  0.13132741  0.94374776  0.90988737     0.15000
C1211       C  0.08046105  0.77125125  0.49737187    -0.11400
C1212       C  0.09661051  0.74633615  0.01700356    -0.13000
C1213       C  0.87331722  0.73476065  0.49122839    -0.11400
C1214       C  0.89185454  0.77285146  0.98671926    -0.13000
C1215       C  0.99905409  0.63259134  0.47978058    -0.11400
C1216       C  0.98089868  0.63609324  0.98649367    -0.13000
C1217       C  0.74385082  0.63938230  0.75450682    -0.14600
C1218       C  0.71462749  0.63575957  0.75242321    -0.29800
H1219       H  0.75313246  0.66235303  0.76002698     0.14400
H1220       H  0.70548008  0.61285938  0.74558885     0.15000
C1221       C  0.77733851  0.52591773  0.74634921    -0.14600
C1222       C  0.79691136  0.00402372  0.73446917    -0.29800
H1223       H  0.75481255  0.51866826  0.75208761     0.14400
H1224       H  0.81862189  0.01353582  0.72696147     0.15000
C1225       C  0.82235648  0.61691511  0.64762639    -0.14600
C1226       C  0.84173363  0.60141792  0.61747295    -0.29800
H1227       H  0.81851687  0.64161233  0.64078958     0.14400
H1228       H  0.84724701  0.57735779  0.62677365     0.15000
C1229       C  0.83061112  0.61740448  0.82926413    -0.14600
C1230       C  0.84754562  0.60253654  0.86521260    -0.29800
H1231       H  0.82999936  0.64272470  0.82901262     0.14400
H1232       H  0.84939565  0.57733067  0.86524305     0.15000
C1233       C  0.22340987  0.63853215  0.74908745    -0.14600
C1234       C  0.25147560  0.63757792  0.73334735    -0.29800
H1235       H  0.21428323  0.66024597  0.76368428     0.14400
H1236       H  0.26033117  0.61585662  0.71833008     0.15000
C1237       C  0.19547316  0.52288503  0.72917511    -0.14600
C1238       C  0.17235974  0.00299186  0.76244904    -0.29800
H1239       H  0.19848424  0.51499616  0.68854252     0.14400
H1240       H  0.15106635  0.01416689  0.76754478     0.15000
C1241       C  0.14529937  0.61676692  0.64814488    -0.14600
C1242       C  0.12894350  0.60225812  0.61133818    -0.29800
H1243       H  0.14683963  0.64202159  0.64763170     0.14400
H1244       H  0.12572282  0.57724312  0.61337956     0.15000
C1245       C  0.13894518  0.60473386  0.83209615    -0.14600
C1246       C  0.14062787  0.63314255  0.85401925    -0.29800
H1247       H  0.12509104  0.58719179  0.85064495     0.14400
H1248       H  0.15563307  0.65044641  0.83811457     0.15000
loop_ 
_geom_bond_atom_site_label_1 
_geom_bond_atom_site_label_2 
_geom_bond_distance 
_geom_bond_site_symmetry_2 
_ccdc_geom_bond_type 
C1            C2   1.532       .  S
C1            C7   1.544       .  S
C1            C5   1.542       .  S
C1          C301   1.532       .  S
C2            H9   1.085       .  S
C2            C3   1.366       .  D
C3            C4   1.532       .  S
C3          C305   1.479       .  S
C4            C8   1.530       .  S
C4            C6   1.533       .  S
C4           H10   1.112       .  S
C5           H11   1.084       .  S
C5            C6   1.379       .  D
C6          C297   1.492       .  S
C7           H12   1.079       .  S
C7            C8   1.365       .  D
C8          C309   1.481       .  S
C13          C14   1.540       .  S
C13          C19   1.535       .  S
C13          C17   1.547       .  S
C13         C285   1.529       .  S
C14          H21   1.086       .  S
C14          C15   1.369       .  D
C15          C16   1.533       .  S
C15         C293   1.485       .  S
C16          C20   1.533       .  S
C16          C18   1.533       .  S
C16          H22   1.112       .  S
C17          H23   1.084       .  S
C17          C18   1.381       .  D
C18         C281   1.495       .  S
C19          H24   1.086       .  S
C19          C20   1.364       .  D
C20         C289   1.478       .  S
In25         O27   2.242       .  S
In25         O30   2.244   1_556  S
In25         O32   2.241   1_556  S
In25         O34   2.243   1_556  S
In25        O340   2.250   1_556  S
In25        O348   2.244       .  S
In25        O345   2.245       .  S
In25        O349   2.250       .  S
C26          O32   1.260       .  A
C26          O34   1.258       .  A
C26         C290   1.468       .  S
O27          C35   1.259   1_556  A
O28        In337   2.251       .  S
O28         C347   1.262       .  A
C29          O36   1.258       .  A
C29         O342   1.256       .  A
C29         C280   1.429       .  S
O30         C341   1.256       .  A
C31          O33   1.262       .  A
C31          O37   1.258       .  A
C31         C294   1.475       .  S
O33        In337   2.262       .  S
C35         O340   1.260       .  A
C35         C277   1.435       .  S
O36        In337   2.250       .  S
O37        In337   2.246       .  S
In38         O41   2.235       .  S
In38         O49   2.245       .  S
In38         O46   2.243       .  S
In38         O50   2.235       .  S
In38        O352   2.240   1_554  S
In38        O355   2.237   1_554  S
In38        O357   2.230   1_554  S
In38        O359   2.249   1_554  S
C39          O45   1.259       .  A
C39          O47   1.260       .  A
C39         C310   1.465       .  S
O40        In350   2.231       .  S
O40          C48   1.259       .  A
O41         C360   1.260   1_554  A
C42          O49   1.257       .  A
C42         O355   1.256   1_554  A
C42         C279   1.428   1_455  S
O43        In350   2.241       .  S
O43         C354   1.256       .  A
C44          O46   1.261       .  A
C44          O50   1.258       .  A
C44         C306   1.466       .  S
O45        In350   2.236       .  S
O47        In350   2.235       .  S
C48         O353   1.262       .  A
C48         C276   1.431       .  S
C51          C52   1.532       .  S
C51          C57   1.524       .  S
C51          C55   1.546       .  S
C51         C302   1.503       .  S
C52          H59   1.085       .  S
C52          C53   1.367       .  D
C53          C54   1.540       .  S
C53         C271   1.490       .  S
C54          C58   1.537       .  S
C54          C56   1.539       .  S
C54          H60   1.111       .  S
C55          H61   1.084       .  S
C55          C56   1.380       .  D
C56         C263   1.485       .  S
C57          H62   1.088       .  S
C57          C58   1.352       .  D
C58         C268   1.467       .  S
C63          C64   1.542       .  S
C63          C69   1.534       .  S
C63          C67   1.540       .  S
C63         C286   1.520       .  S
C64          H71   1.085       .  S
C64          C65   1.370       .  D
C65          C66   1.536       .  S
C65         C260   1.488       .  S
C66          C70   1.532       .  S
C66          C68   1.535       .  S
C66          H72   1.112       .  S
C67          H73   1.084       .  S
C67          C68   1.378       .  D
C68         C251   1.489       .  S
C69          H74   1.085       .  S
C69          C70   1.362       .  D
C70         C255   1.480       .  S
In75         O78   2.241       .  S
In75         O86   2.260   1_556  S
In75         O83   2.258   1_556  S
In75         O87   2.253   1_556  S
In75        O389   2.257   1_556  S
In75        O392   2.252       .  S
In75        O394   2.259       .  S
In75        O396   2.235       .  S
C76          O82   1.258       .  A
C76          O84   1.261       .  A
C76         C256   1.466       .  S
O77        In387   2.241       .  S
O77          C85   1.258       .  A
O78         C397   1.257   1_556  A
C79          O86   1.258   1_556  A
C79         O392   1.257       .  A
C79         C250   1.437       .  S
O80        In387   2.234       .  S
O80         C391   1.255       .  A
C81          O83   1.262       .  A
C81          O87   1.259       .  A
C81         C259   1.477       .  S
O82        In387   2.237       .  S
O84        In387   2.243       .  S
C85         O390   1.261       .  A
C85         C278   1.437       .  S
In88         O90   2.235   1_556  S
In88         O93   2.249   1_556  S
In88         O95   2.222   1_556  S
In88         O97   2.257   1_556  S
In88        O403   2.249       .  S
In88        O411   2.260       .  S
In88        O408   2.250       .  S
In88        O412   2.259       .  S
C89          O95   1.261       .  A
C89          O97   1.260       .  A
C89         C267   1.471       .  S
O90          C98   1.257   1_554  A
O91        In400   2.242       .  S
O91         C410   1.260       .  A
C92          O99   1.257       .  A
C92         O405   1.256       .  A
C92         C249   1.427       .  S
O93         C404   1.255   1_554  A
C94          O96   1.261       .  A
C94         O100   1.258       .  A
C94         C272   1.475       .  S
O96        In400   2.270       .  S
C98         O403   1.259       .  A
C98         C275   1.430       .  S
O99        In400   2.242       .  S
O100       In400   2.240       .  S
C101        C102   1.539       .  S
C101        C107   1.537       .  S
C101        C105   1.546       .  S
C101        C237   1.517       .  S
C102        H109   1.087       .  S
C102        C103   1.359       .  D
C103        C104   1.533       .  S
C103        C242   1.475       .  S
C104        C108   1.527       .  S
C104        C106   1.533       .  S
C104        H110   1.111       .  S
C105        H111   1.084       .  S
C105        C106   1.380       .  D
C106        C298   1.488       .  S
C107        H112   1.086       .  S
C107        C108   1.364       .  D
C108        C245   1.474       .  S
C113        C114   1.534       .  S
C113        C119   1.530       .  S
C113        C117   1.556       .  S
C113        C225   1.516       .  S
C114        H121   1.084       .  S
C114        C115   1.367       .  D
C115        C116   1.533       .  S
C115        C233   1.484       .  S
C116        C120   1.534       .  S
C116        C118   1.532       .  S
C116        H122   1.111       .  S
C117        H123   1.084       .  S
C117        C118   1.385       .  D
C118        C282   1.492       .  S
C119        H124   1.088       .  S
C119        C120   1.355       .  D
C120        C230   1.472       .  S
In125       O127   2.234       .  S
In125       O130   2.233       .  S
In125       O132   2.231       .  S
In125       O134   2.246       .  S
In125       O440   2.239   1_554  S
In125       O448   2.245   1_554  S
In125       O445   2.246   1_554  S
In125       O449   2.234   1_554  S
C126        O132   1.259       .  A
C126        O134   1.259       .  A
C126        C229   1.468       .  S
O127        C135   1.259       .  A
O128       In437   2.249       .  S
O128        C447   1.261       .  A
C129        O136   1.257       .  A
C129        O442   1.259       .  A
C129        C224   1.426       .  S
O130        C441   1.256       .  A
C131        O133   1.260       .  A
C131        O137   1.258       .  A
C131        C234   1.469       .  S
O133       In437   2.241       .  S
C135        O440   1.260   1_554  A
C135        C222   1.428       .  S
O136       In437   2.242       .  S
O137       In437   2.245       .  S
In138       O141   2.234   1_554  S
In138       O149   2.238       .  S
In138       O146   2.238       .  S
In138       O150   2.242       .  S
In138       O452   2.242       .  S
In138       O455   2.238   1_554  S
In138       O457   2.244   1_554  S
In138       O459   2.222   1_554  S
C139        O145   1.261       .  A
C139        O147   1.256       .  A
C139        C246   1.465       .  S
O140       In450   2.246       .  S
O140        C148   1.259       .  A
O141        C460   1.259   1_556  A
C142        O149   1.258       .  A
C142        O455   1.257   1_554  A
C142        C223   1.426       .  S
O143       In450   2.250       .  S
O143        C454   1.259       .  A
C144        O146   1.258       .  A
C144        O150   1.260       .  A
C144        C241   1.466       .  S
O145       In450   2.242       .  S
O147       In450   2.241       .  S
C148        O453   1.259       .  A
C148        C220   1.434       .  S
C151        C152   1.543       .  S
C151        C157   1.533       .  S
C151        C155   1.537       .  S
C151        C238   1.527       .  S
C152        H159   1.081       .  S
C152        C153   1.367       .  D
C153        C154   1.540       .  S
C153        C211   1.488       .  S
C154        C158   1.543       .  S
C154        C156   1.537       .  S
C154        H160   1.110       .  S
C155        H161   1.084       .  S
C155        C156   1.376       .  D
C156        C264   1.490       .  S
C157        H162   1.087       .  S
C157        C158   1.361       .  D
C158        C215   1.486       .  S
C163        C164   1.538       .  S
C163        C169   1.538       .  S
C163        C167   1.541       .  S
C163        C226   1.527       .  S
C164        H171   1.085       .  S
C164        C165   1.368       .  D
C165        C166   1.537       .  S
C165        C207   1.491       .  S
C166        C170   1.538       .  S
C166        C168   1.536       .  S
C166        H172   1.112       .  S
C167        H173   1.083       .  S
C167        C168   1.378       .  D
C168        C252   1.489       .  S
C169        H174   1.084       .  S
C169        C170   1.367       .  D
C170        C204   1.490       .  S
In175       O177   2.245       .  S
In175       O180   2.259       .  S
In175       O182   2.255       .  S
In175       O184   2.264       .  S
In175       O490   2.256       .  S
In175       O498   2.267       .  S
In175       O495   2.264       .  S
In175       O499   2.250       .  S
C176        O182   1.258       .  A
C176        O184   1.259       .  A
C176        C203   1.476       .  S
O177        C185   1.258       .  A
O178       In487   2.248       .  S
O178        C497   1.261       .  A
C179        O186   1.258       .  A
C179        O492   1.258   1_554  A
C179        C202   1.443       .  S
O180        C491   1.257       .  A
C181        O183   1.261       .  A
C181        O187   1.258       .  A
C181        C208   1.477       .  S
O183       In487   2.271       .  S
C185        O490   1.260       .  A
C185        C221   1.436       .  S
O186       In487   2.265       .  S
O187       In487   2.246       .  S
In188       O190   2.241       .  S
In188       O193   2.257       .  S
In188       O195   2.263       .  S
In188       O197   2.259       .  S
In188       O503   2.253   1_554  S
In188       O511   2.265   1_554  S
In188       O508   2.250   1_554  S
In188       O512   2.260   1_554  S
C189        O195   1.261       .  A
C189        O197   1.258       .  A
C189        C216   1.480       .  S
O190        C198   1.259   1_554  A
O191       In500   2.258       .  S
O191        C510   1.260       .  A
C192        O199   1.259       .  A
C192        O505   1.257       .  A
C192        C201   1.442       .  S
O193        C504   1.258       .  A
C194        O196   1.260       .  A
C194        O200   1.259       .  A
C194        C212   1.476       .  S
O196       In500   2.264       .  S
C198        O503   1.260       .  A
C198        C219   1.433       .  S
O199       In500   2.264       .  S
O200       In500   2.251       .  S
C201        C514   1.210       .  T
C202        C513   1.210       .  T
C203        H205   1.085       .  S
C203        C204   1.347       .  D
C204        H206   1.087       .  S
C207        H209   1.087       .  S
C207        C208   1.345       .  D
C208        H210   1.085       .  S
C211        H213   1.086       .  S
C211        C212   1.346       .  D
C212        H214   1.086       .  S
C215        H217   1.087       .  S
C215        C216   1.342       .  D
C216        H218   1.085       .  S
C219       C1156   1.204       .  T
C220       C1155   1.205   1_545  T
C221       C1158   1.206       .  T
C222       C1157   1.201   1_545  T
C223        C536   1.201       .  T
C224        C535   1.200       .  T
C225        H227   1.089       .  S
C225        C226   1.347       .  D
C226        H228   1.084       .  S
C229        H231   1.086       .  S
C229        C230   1.339       .  D
C230        H232   1.087       .  S
C233        H235   1.086       .  S
C233        C234   1.344       .  D
C234        H236   1.082       .  S
C237        H239   1.080       .  S
C237        C238   1.349       .  D
C238        H240   1.087       .  S
C241        H243   1.086       .  S
C241        C242   1.340       .  D
C242        H244   1.087       .  S
C245        H247   1.087       .  S
C245        C246   1.338       .  D
C246        H248   1.087       .  S
C249        C562   1.201   1_455  T
C250        C561   1.207       .  T
C251        H253   1.084       .  S
C251        C252   1.342       .  D
C252        H254   1.084       .  S
C255        H257   1.086       .  S
C255        C256   1.342       .  D
C256        H258   1.085       .  S
C259        H261   1.085       .  S
C259        C260   1.345       .  D
C260        H262   1.087       .  S
C263        H265   1.084       .  S
C263        C264   1.342       .  D
C264        H266   1.084       .  S
C267        H269   1.087       .  S
C267        C268   1.337       .  D
C268        H270   1.088       .  S
C271        H273   1.086       .  S
C271        C272   1.347       .  D
C272        H274   1.085       .  S
C275        C588   1.203       .  T
C276        C587   1.204       .  T
C277        C590   1.206       .  T
C278        C589   1.207       .  T
C279        C592   1.202       .  T
C280        C591   1.202       .  T
C281        H283   1.085       .  S
C281        C282   1.340       .  D
C282        H284   1.084       .  S
C285        H287   1.084       .  S
C285        C910   1.351       .  D
C286        H288   1.081       .  S
C286        C909   1.346       .  D
C289        H291   1.086       .  S
C289        C290   1.342       .  D
C290        H292   1.086       .  S
C293        H295   1.087       .  S
C293        C294   1.342       .  D
C294        H296   1.086       .  S
C297        H299   1.084       .  S
C297        C298   1.340       .  D
C298        H300   1.083       .  S
C301        H303   1.087       .  S
C301        C926   1.349       .  D
C302        H304   1.089       .  S
C302        C925   1.345       .  D
C305        H307   1.087       .  S
C305        C306   1.341       .  D
C306        H308   1.086       .  S
C309        H311   1.085       .  S
C309        C310   1.343       .  D
C310        H312   1.082       .  S
C313        C314   1.539       .  S
C313        C319   1.535       .  S
C313        C317   1.548       .  S
C313        C613   1.535       .  S
C314        H321   1.085       .  S
C314        C315   1.367       .  D
C315        C316   1.531       .  S
C315        C617   1.480       .  S
C316        C320   1.530       .  S
C316        C318   1.529       .  S
C316        H322   1.112       .  S
C317        H323   1.084       .  S
C317        C318   1.385       .  D
C318        C609   1.494       .  S
C319        H324   1.086       .  S
C319        C320   1.365       .  D
C320        C621   1.478       .  S
C325        C326   1.536       .  S
C325        C331   1.530       .  S
C325        C329   1.542       .  S
C325        C597   1.520       .  S
C326        H333   1.085       .  S
C326        C327   1.367       .  D
C327        C328   1.535       .  S
C327        C605   1.484       .  S
C328        C332   1.538       .  S
C328        C330   1.535       .  S
C328        H334   1.112       .  S
C329        H335   1.083       .  S
C329        C330   1.379       .  D
C330        C593   1.492       .  S
C331        H336   1.085       .  S
C331        C332   1.365       .  D
C332        C601   1.482       .  S
In337       O339   2.241       .  S
In337       O342   2.237       .  S
In337       O344   2.248       .  S
In337       O346   2.235       .  S
C338        O344   1.260       .  A
C338        O346   1.258       .  A
C338        C602   1.466       .  S
O339        C347   1.259       .  A
C341        O348   1.257   1_554  A
C341        C592   1.429       .  S
C343        O345   1.260       .  A
C343        O349   1.259       .  A
C343        C606   1.472       .  S
C347        C589   1.437       .  S
In350       O353   2.248       .  S
In350       O361   2.247       .  S
In350       O358   2.245       .  S
In350       O362   2.254       .  S
C351        O357   1.257       .  A
C351        O359   1.261       .  A
C351        C622   1.465       .  S
O352        C360   1.260       .  A
C354        O361   1.258       .  A
C354        C591   1.430   1_455  S
C356        O358   1.258       .  A
C356        O362   1.256       .  A
C356        C618   1.471       .  S
C360        C588   1.430       .  S
C363        C364   1.540       .  S
C363        C369   1.542       .  S
C363        C367   1.548       .  S
C363        C614   1.529       .  S
C364        H371   1.085       .  S
C364        C365   1.366       .  D
C365        C366   1.535       .  S
C365        C583   1.488       .  S
C366        C370   1.536       .  S
C366        C368   1.533       .  S
C366        H372   1.111       .  S
C367        H373   1.084       .  S
C367        C368   1.379       .  D
C368        C575   1.494       .  S
C369        H374   1.086       .  S
C369        C370   1.361       .  D
C370        C580   1.479       .  S
C375        C376   1.528       .  S
C375        C381   1.525       .  S
C375        C379   1.543       .  S
C375        C598   1.512       .  S
C376        H383   1.086       .  S
C376        C377   1.367       .  D
C377        C378   1.541       .  S
C377        C572   1.486       .  S
C378        C382   1.545       .  S
C378        C380   1.554       .  S
C378        H384   1.106       .  S
C379        H385   1.084       .  S
C379        C380   1.374       .  D
C380        C563   1.499       .  S
C381        H386   1.088       .  S
C381        C382   1.358       .  D
C382        C567   1.479       .  S
In387       O390   2.257       .  S
In387       O398   2.248       .  S
In387       O395   2.268       .  S
In387       O399   2.231       .  S
C388        O394   1.260       .  A
C388        O396   1.262       .  A
C388        C568   1.477       .  S
O389        C397   1.260       .  A
C391        O398   1.258       .  A
C391        C562   1.427       .  S
C393        O395   1.261       .  A
C393        O399   1.256       .  A
C393        C571   1.470       .  S
C397        C590   1.435       .  S
In400       O402   2.242       .  S
In400       O405   2.242       .  S
In400       O407   2.248       .  S
In400       O409   2.246       .  S
C401        O407   1.260       .  A
C401        O409   1.260       .  A
C401        C579   1.472       .  S
O402        C410   1.258       .  A
C404        O411   1.258       .  A
C404        C561   1.437   1_455  S
C406        O408   1.260       .  A
C406        O412   1.260       .  A
C406        C584   1.477       .  S
C410        C587   1.431       .  S
C413        C414   1.534       .  S
C413        C419   1.536       .  S
C413        C417   1.556       .  S
C413        C549   1.514       .  S
C414        H421   1.086       .  S
C414        C415   1.361       .  D
C415        C416   1.523       .  S
C415        C554   1.475       .  S
C416        C420   1.525       .  S
C416        C418   1.529       .  S
C416        H422   1.112       .  S
C417        H423   1.084       .  S
C417        C418   1.386       .  D
C418        C610   1.490       .  S
C419        H424   1.085       .  S
C419        C420   1.365       .  D
C420        C557   1.476       .  S
C425        C426   1.533       .  S
C425        C431   1.540       .  S
C425        C429   1.546       .  S
C425        C537   1.519       .  S
C426        H433   1.085       .  S
C426        C427   1.363       .  D
C427        C428   1.531       .  S
C427        C545   1.480       .  S
C428        C432   1.538       .  S
C428        C430   1.532       .  S
C428        H434   1.110       .  S
C429        H435   1.084       .  S
C429        C430   1.379       .  D
C430        C594   1.489       .  S
C431        H436   1.086       .  S
C431        C432   1.366       .  D
C432        C542   1.484       .  S
In437       O439   2.239       .  S
In437       O442   2.237       .  S
In437       O444   2.256       .  S
In437       O446   2.251       .  S
C438        O444   1.259       .  A
C438        O446   1.259       .  A
C438        C541   1.473       .  S
O439        C447   1.259       .  A
C441        O448   1.258   1_554  A
C441        C536   1.427       .  S
C443        O445   1.261       .  A
C443        O449   1.257       .  A
C443        C546   1.466       .  S
C447        C534   1.433       .  S
In450       O453   2.242       .  S
In450       O461   2.225       .  S
In450       O458   2.221       .  S
In450       O462   2.243       .  S
C451        O457   1.259       .  A
C451        O459   1.261       .  A
C451        C558   1.466       .  S
O452        C460   1.260       .  A
C454        O461   1.256       .  A
C454        C535   1.426       .  S
C456        O458   1.263       .  A
C456        O462   1.261       .  A
C456        C553   1.466       .  S
C460        C532   1.429       .  S
C463        C464   1.538       .  S
C463        C469   1.537       .  S
C463        C467   1.545       .  S
C463        C550   1.529       .  S
C464        H471   1.083       .  S
C464        C465   1.365       .  D
C465        C466   1.539       .  S
C465        C523   1.490       .  S
C466        C470   1.538       .  S
C466        C468   1.537       .  S
C466        H472   1.111       .  S
C467        H473   1.084       .  S
C467        C468   1.382       .  D
C468        C576   1.495       .  S
C469        H474   1.087       .  S
C469        C470   1.361       .  D
C470        C527   1.481       .  S
C475        C476   1.532       .  S
C475        C481   1.543       .  S
C475        C479   1.534       .  S
C475        C538   1.531       .  S
C476        H483   1.086       .  S
C476        C477   1.367       .  D
C477        C478   1.544       .  S
C477        C519   1.491       .  S
C478        C482   1.541       .  S
C478        C480   1.551       .  S
C478        H484   1.108       .  S
C479        H485   1.086       .  S
C479        C480   1.370       .  D
C480        C564   1.496       .  S
C481        H486   1.080       .  S
C481        C482   1.368       .  D
C482        C516   1.489       .  S
In487       O489   2.244   1_554  S
In487       O492   2.262   1_554  S
In487       O494   2.242   1_554  S
In487       O496   2.264   1_554  S
C488        O494   1.259       .  A
C488        O496   1.260       .  A
C488        C515   1.473       .  S
O489        C497   1.260   1_556  A
C491        O498   1.259       .  A
C491        C514   1.442       .  S
C493        O495   1.261       .  A
C493        O499   1.261       .  A
C493        C520   1.478       .  S
C497        C533   1.436       .  S
In500       O502   2.249       .  S
In500       O505   2.256       .  S
In500       O507   2.248       .  S
In500       O509   2.259       .  S
C501        O507   1.260       .  A
C501        O509   1.260       .  A
C501        C528   1.476       .  S
O502        C510   1.259       .  A
C504        O511   1.259   1_554  A
C504        C513   1.442       .  S
C506        O508   1.259       .  A
C506        O512   1.260       .  A
C506        C524   1.476       .  S
C510        C531   1.440       .  S
C515        H517   1.085       .  S
C515        C516   1.347       .  D
C516        H518   1.086       .  S
C519        H521   1.086       .  S
C519        C520   1.349       .  D
C520        H522   1.086       .  S
C523        H525   1.086       .  S
C523        C524   1.349       .  D
C524        H526   1.083       .  S
C527        H529   1.087       .  S
C527        C528   1.343       .  D
C528        H530   1.086       .  S
C531        C844   1.208       .  T
C532        C843   1.202   1_545  T
C533        C846   1.206       .  T
C534        C845   1.205   1_545  T
C537        H539   1.080       .  S
C537        C538   1.347       .  D
C538        H540   1.087       .  S
C541        H543   1.085       .  S
C541        C542   1.345       .  D
C542        H544   1.087       .  S
C545        H547   1.087       .  S
C545        C546   1.342       .  D
C546        H548   1.085       .  S
C549        H551   1.089       .  S
C549        C550   1.349       .  D
C550        H552   1.085       .  S
C553        H555   1.085       .  S
C553        C554   1.340       .  D
C554        H556   1.087       .  S
C557        H559   1.087       .  S
C557        C558   1.340       .  D
C558        H560   1.084       .  S
C563        H565   1.084       .  S
C563        C564   1.349       .  D
C564        H566   1.083       .  S
C567        H569   1.088       .  S
C567        C568   1.339       .  D
C568        H570   1.086       .  S
C571        H573   1.085       .  S
C571        C572   1.344       .  D
C572        H574   1.085       .  S
C575        H577   1.083       .  S
C575        C576   1.343       .  D
C576        H578   1.084       .  S
C579        H581   1.086       .  S
C579        C580   1.342       .  D
C580        H582   1.087       .  S
C583        H585   1.086       .  S
C583        C584   1.346       .  D
C584        H586   1.084       .  S
C593        H595   1.084       .  S
C593        C594   1.341       .  D
C594        H596   1.084       .  S
C597        H599   1.083       .  S
C597       C1222   1.350       .  D
C598        H600   1.088       .  S
C598       C1221   1.344       .  D
C601        H603   1.087       .  S
C601        C602   1.344       .  D
C602        H604   1.085       .  S
C605        H607   1.086       .  S
C605        C606   1.344       .  D
C606        H608   1.085       .  S
C609        H611   1.085       .  S
C609        C610   1.335       .  D
C610        H612   1.084       .  S
C613        H615   1.085       .  S
C613       C1238   1.352       .  D
C614        H616   1.084       .  S
C614       C1237   1.352       .  D
C617        H619   1.087       .  S
C617        C618   1.342       .  D
C618        H620   1.085       .  S
C621        H623   1.087       .  S
C621        C622   1.340       .  D
C622        H624   1.086       .  S
C625        C626   1.541       .  S
C625        C631   1.535       .  S
C625        C629   1.541       .  S
C625        C925   1.519       .  S
C626        H633   1.085       .  S
C626        C627   1.368       .  D
C627        C628   1.533       .  S
C627        C929   1.487       .  S
C628        C632   1.535       .  S
C628        C630   1.534       .  S
C628        H634   1.111       .  S
C629        H635   1.084       .  S
C629        C630   1.379       .  D
C630        C921   1.481       .  S
C631        H636   1.087       .  S
C631        C632   1.354       .  D
C632        C933   1.474       .  S
C637        C638   1.544       .  S
C637        C643   1.530       .  S
C637        C641   1.542       .  S
C637        C909   1.528       .  S
C638        H645   1.080       .  S
C638        C639   1.369       .  D
C639        C640   1.534       .  S
C639        C917   1.487       .  S
C640        C644   1.539       .  S
C640        C642   1.532       .  S
C640        H646   1.111       .  S
C641        H647   1.084       .  S
C641        C642   1.377       .  D
C642        C905   1.488       .  S
C643        H648   1.087       .  S
C643        C644   1.359       .  D
C644        C913   1.474       .  S
In649       O651   2.235   1_556  S
In649       O964   2.248       .  S
In649       O972   2.259       .  S
In649       O654   2.243   1_556  S
In649       O656   2.234   1_556  S
In649       O969   2.246       .  S
In649       O658   2.249   1_556  S
In649       O973   2.250       .  S
C650        O656   1.261       .  A
C650        O658   1.259       .  A
C650        C914   1.470       .  S
O651        C659   1.258   1_554  A
O652       In961   2.242       .  S
O652        C971   1.258       .  A
C653        O660   1.257       .  A
C653        O966   1.256       .  A
C653        C904   1.428       .  S
O654        C965   1.256   1_554  A
C655        O657   1.262       .  A
C655        O661   1.257       .  A
C655        C918   1.468       .  S
O657       In961   2.255       .  S
C659        O964   1.260       .  A
C659        C901   1.431       .  S
O660       In961   2.249       .  S
O661       In961   2.233       .  S
In662       O976   2.241       .  S
In662       O665   2.257   1_556  S
In662       O673   2.257   1_556  S
In662       O979   2.239       .  S
In662       O981   2.241       .  S
In662       O670   2.259   1_556  S
In662       O983   2.267       .  S
In662       O674   2.254   1_556  S
C663        O669   1.262       .  A
C663        O671   1.259       .  A
C663        C934   1.469       .  S
O664       In974   2.232       .  S
O664        C672   1.257       .  A
O665        C984   1.261       .  A
C666        O673   1.260   1_556  A
C666        O979   1.257       .  A
C666        C903   1.434       .  S
O667       In974   2.243       .  S
O667        C978   1.257       .  A
C668        O670   1.260       .  A
C668        O674   1.257       .  A
C668        C930   1.475       .  S
O669       In974   2.238       .  S
O671       In974   2.240       .  S
C672        O977   1.259       .  A
C672        C900   1.426       .  S
C675        C676   1.531       .  S
C675        C681   1.533       .  S
C675        C679   1.531       .  S
C675        C926   1.519   1_565  S
C676        H683   1.085       .  S
C676        C677   1.364       .  D
C677        C678   1.545       .  S
C677        C895   1.490       .  S
C678        C682   1.551       .  S
C678        C680   1.555       .  S
C678        H684   1.107       .  S
C679        H685   1.086       .  S
C679        C680   1.373       .  D
C680        C887   1.496       .  S
C681        H686   1.087       .  S
C681        C682   1.366       .  D
C682        C892   1.489       .  S
C687        C688   1.532       .  S
C687        C693   1.526       .  S
C687        C691   1.542       .  S
C687        C910   1.522   1_565  S
C688        H695   1.084       .  S
C688        C689   1.370       .  D
C689        C690   1.549       .  S
C689        C884   1.499       .  S
C690        C694   1.550       .  S
C690        C692   1.556       .  S
C690        H696   1.107       .  S
C691        H697   1.085       .  S
C691        C692   1.379       .  D
C692        C875   1.505       .  S
C693        H698   1.088       .  S
C693        C694   1.359       .  D
C694        C879   1.488       .  S
In699      O1013   2.238       .  S
In699       O702   2.239   1_556  S
In699       O710   2.265   1_556  S
In699      O1016   2.269       .  S
In699      O1018   2.262       .  S
In699       O707   2.275   1_556  S
In699      O1020   2.273       .  S
In699       O711   2.252   1_556  S
C700        O706   1.261       .  A
C700        O708   1.258       .  A
C700        C880   1.484       .  S
O701      In1011   2.245       .  S
O701        C709   1.259       .  A
O702       C1021   1.261   1_554  A
C703        O710   1.259       .  A
C703       O1016   1.260   1_554  A
C703        C874   1.448       .  S
O704      In1011   2.259       .  S
O704       C1015   1.260       .  A
C705        O707   1.260       .  A
C705        O711   1.260       .  A
C705        C883   1.481       .  S
O706      In1011   2.258       .  S
O708      In1011   2.269       .  S
C709       O1014   1.261       .  A
C709        C902   1.436       .  S
In712       O714   2.249       .  S
In712      O1027   2.245   1_554  S
In712      O1035   2.265   1_554  S
In712       O717   2.277       .  S
In712       O719   2.266       .  S
In712      O1032   2.264   1_554  S
In712       O721   2.269       .  S
In712      O1036   2.254   1_554  S
C713        O719   1.262       .  A
C713        O721   1.258       .  A
C713        C891   1.484       .  S
O714        C722   1.260       .  A
O715      In1024   2.236       .  S
O715       C1034   1.259       .  A
C716        O723   1.258       .  A
C716       O1029   1.259       .  A
C716        C873   1.442   1_455  S
O717       C1028   1.259       .  A
C718        O720   1.259       .  A
C718        O724   1.261       .  A
C718        C896   1.474       .  S
O720      In1024   2.263       .  S
C722       O1027   1.260   1_554  A
C722        C899   1.435       .  S
O723      In1024   2.257       .  S
O724      In1024   2.248       .  S
C725        C726   1.532       .  S
C725        C731   1.535       .  S
C725        C729   1.537       .  S
C725        C861   1.517       .  S
C726        H733   1.087       .  S
C726        C727   1.359       .  D
C727        C728   1.542       .  S
C727        C866   1.480       .  S
C728        C732   1.533       .  S
C728        C730   1.534       .  S
C728        H734   1.108       .  S
C729        H735   1.083       .  S
C729        C730   1.379       .  D
C730        C922   1.485       .  S
C731        H736   1.085       .  S
C731        C732   1.366       .  D
C732        C869   1.480       .  S
C737        C738   1.542       .  S
C737        C743   1.542       .  S
C737        C741   1.544       .  S
C737        C849   1.529       .  S
C738        H745   1.084       .  S
C738        C739   1.370       .  D
C739        C740   1.533       .  S
C739        C857   1.487       .  S
C740        C744   1.531       .  S
C740        C742   1.531       .  S
C740        H746   1.112       .  S
C741        H747   1.085       .  S
C741        C742   1.375       .  D
C742        C906   1.485       .  S
C743        H748   1.085       .  S
C743        C744   1.369       .  D
C744        C854   1.486       .  S
In749       O751   2.251       .  S
In749      O1064   2.243   1_554  S
In749      O1072   2.241   1_554  S
In749       O754   2.254       .  S
In749       O756   2.248       .  S
In749      O1069   2.249   1_554  S
In749       O758   2.267       .  S
In749      O1073   2.230   1_554  S
C750        O756   1.255       .  A
C750        O758   1.261       .  A
C750        C853   1.475       .  S
O751        C759   1.261       .  A
O752      In1061   2.253       .  S
O752       C1071   1.261       .  A
C753        O760   1.260       .  A
C753       O1066   1.257       .  A
C753        C848   1.436       .  S
O754       C1065   1.259       .  A
C755        O757   1.261       .  A
C755        O761   1.258       .  A
C755        C858   1.476       .  S
O757      In1061   2.252       .  S
C759       O1064   1.259   1_554  A
C759        C846   1.436       .  S
O760      In1061   2.264       .  S
O761      In1061   2.252       .  S
In762      O1076   2.236   1_554  S
In762       O765   2.246   1_554  S
In762       O773   2.249       .  S
In762      O1079   2.245   1_554  S
In762      O1081   2.252   1_554  S
In762       O770   2.252       .  S
In762      O1083   2.258   1_554  S
In762       O774   2.244       .  S
C763        O769   1.260       .  A
C763        O771   1.257       .  A
C763        C870   1.468       .  S
O764      In1074   2.252       .  S
O764        C772   1.261       .  A
O765       C1084   1.261       .  A
C766        O773   1.258       .  A
C766       O1079   1.258   1_554  A
C766        C847   1.432       .  S
O767      In1074   2.261       .  S
O767       C1078   1.257       .  A
C768        O770   1.257       .  A
C768        O774   1.260       .  A
C768        C865   1.471       .  S
O769      In1074   2.248       .  S
O771      In1074   2.244       .  S
C772       O1077   1.261       .  A
C772        C844   1.440       .  S
C775        C776   1.528       .  S
C775        C781   1.528       .  S
C775        C779   1.541       .  S
C775        C862   1.507       .  S
C776        H783   1.086       .  S
C776        C777   1.363       .  D
C777        C778   1.544       .  S
C777        C835   1.492       .  S
C778        C782   1.545       .  S
C778        C780   1.557       .  S
C778        H784   1.106       .  S
C779        H785   1.085       .  S
C779        C780   1.377       .  D
C780        C888   1.501       .  S
C781        H786   1.085       .  S
C781        C782   1.364       .  D
C782        C839   1.492       .  S
C787        C788   1.528       .  S
C787        C793   1.531       .  S
C787        C791   1.545       .  S
C787        C850   1.523       .  S
C788        H795   1.084       .  S
C788        C789   1.366       .  D
C789        C790   1.545       .  S
C789        C831   1.495       .  S
C790        C794   1.544       .  S
C790        C792   1.555       .  S
C790        H796   1.107       .  S
C791        H797   1.085       .  S
C791        C792   1.380       .  D
C792        C876   1.507       .  S
C793        H798   1.084       .  S
C793        C794   1.368       .  D
C794        C828   1.498       .  S
In799       O801   2.251       .  S
In799      O1114   2.241       .  S
In799      O1122   2.267       .  S
In799       O804   2.277       .  S
In799       O806   2.248       .  S
In799      O1119   2.270       .  S
In799       O808   2.276       .  S
In799      O1123   2.244       .  S
C800        O806   1.259       .  A
C800        O808   1.260       .  A
C800        C827   1.478       .  S
O801        C809   1.259       .  A
O802      In1111   2.239   1_554  S
O802       C1121   1.259       .  A
C803        O810   1.258   1_556  A
C803       O1116   1.258       .  A
C803        C826   1.442       .  S
O804       C1115   1.258       .  A
C805        O807   1.260       .  A
C805        O811   1.260       .  A
C805        C832   1.476       .  S
O807      In1111   2.266   1_554  S
C809       O1114   1.258       .  A
C809        C845   1.433       .  S
O810      In1111   2.265   1_554  S
O811      In1111   2.247   1_554  S
In812       O814   2.243       .  S
In812      O1127   2.242       .  S
In812      O1135   2.267   1_554  S
In812       O817   2.250       .  S
In812       O819   2.268       .  S
In812      O1132   2.262   1_554  S
In812       O821   2.254       .  S
In812      O1136   2.262   1_554  S
C813        O819   1.258       .  A
C813        O821   1.259       .  A
C813        C840   1.476       .  S
O814        C822   1.259       .  A
O815      In1124   2.250       .  S
O815       C1134   1.259       .  A
C816        O823   1.259       .  A
C816       O1129   1.259       .  A
C816        C825   1.447       .  S
O817       C1128   1.259   1_554  A
C818        O820   1.261       .  A
C818        O824   1.260       .  A
C818        C836   1.477       .  S
O820      In1124   2.270       .  S
C822       O1127   1.258       .  A
C822        C843   1.429       .  S
O823      In1124   2.268       .  S
O824      In1124   2.247       .  S
C825       C1138   1.213       .  T
C826       C1137   1.210       .  T
C827        H829   1.082       .  S
C827        C828   1.351       .  D
C828        H830   1.085       .  S
C831        H833   1.086       .  S
C831        C832   1.351       .  D
C832        H834   1.083       .  S
C835        H837   1.086       .  S
C835        C836   1.350       .  D
C836        H838   1.086       .  S
C839        H841   1.086       .  S
C839        C840   1.351       .  D
C840        H842   1.084       .  S
C847       C1160   1.204       .  T
C848       C1159   1.206       .  T
C849        H851   1.084       .  S
C849        C850   1.349       .  D
C850        H852   1.088       .  S
C853        H855   1.085       .  S
C853        C854   1.342       .  D
C854        H856   1.087       .  S
C857        H859   1.087       .  S
C857        C858   1.344       .  D
C858        H860   1.084       .  S
C861        H863   1.084       .  S
C861        C862   1.345       .  D
C862        H864   1.089       .  S
C865        H867   1.083       .  S
C865        C866   1.340       .  D
C866        H868   1.088       .  S
C869        H871   1.087       .  S
C869        C870   1.341       .  D
C870        H872   1.085       .  S
C873       C1186   1.210       .  T
C874       C1185   1.213       .  T
C875        H877   1.082       .  S
C875        C876   1.355       .  D
C876        H878   1.083       .  S
C879        H881   1.088       .  S
C879        C880   1.342       .  D
C880        H882   1.085       .  S
C883        H885   1.082       .  S
C883        C884   1.352       .  D
C884        H886   1.085       .  S
C887        H889   1.081       .  S
C887        C888   1.350       .  D
C888        H890   1.084       .  S
C891        H893   1.085       .  S
C891        C892   1.344       .  D
C892        H894   1.087       .  S
C895        H897   1.087       .  S
C895        C896   1.351       .  D
C896        H898   1.086       .  S
C899       C1212   1.206       .  T
C900       C1211   1.200       .  T
C901       C1214   1.203       .  T
C902       C1213   1.206       .  T
C903       C1216   1.205   1_455  T
C904       C1215   1.201       .  T
C905        H907   1.085       .  S
C905        C906   1.341       .  D
C906        H908   1.084       .  S
C909        H911   1.086       .  S
C910        H912   1.089       .  S
C913        H915   1.087       .  S
C913        C914   1.338       .  D
C914        H916   1.086       .  S
C917        H919   1.088       .  S
C917        C918   1.344       .  D
C918        H920   1.085       .  S
C921        H923   1.083       .  S
C921        C922   1.339       .  D
C922        H924   1.084       .  S
C925        H927   1.084       .  S
C926        H928   1.079       .  S
C929        H931   1.087       .  S
C929        C930   1.344       .  D
C930        H932   1.084       .  S
C933        H935   1.087       .  S
C933        C934   1.337       .  D
C934        H936   1.086       .  S
C937        C938   1.535       .  S
C937        C943   1.541       .  S
C937        C941   1.543       .  S
C937       C1237   1.533       .  S
C938        H945   1.085       .  S
C938        C939   1.368       .  D
C939        C940   1.537       .  S
C939       C1241   1.483       .  S
C940        C944   1.539       .  S
C940        C942   1.533       .  S
C940        H946   1.111       .  S
C941        H947   1.085       .  S
C941        C942   1.380       .  D
C942       C1233   1.493       .  S
C943        H948   1.084       .  S
C943        C944   1.362       .  D
C944       C1245   1.481       .  S
C949        C950   1.538       .  S
C949        C955   1.533       .  S
C949        C953   1.535       .  S
C949       C1221   1.515       .  S
C950        H957   1.085       .  S
C950        C951   1.369       .  D
C951        C952   1.536       .  S
C951       C1229   1.485       .  S
C952        C956   1.534       .  S
C952        C954   1.535       .  S
C952        H958   1.112       .  S
C953        H959   1.084       .  S
C953        C954   1.373       .  D
C954       C1217   1.485       .  S
C955        H960   1.086       .  S
C955        C956   1.366       .  D
C956       C1225   1.480       .  S
In961       O963   2.252       .  S
In961       O966   2.237       .  S
In961       O968   2.252       .  S
In961       O970   2.236       .  S
C962        O968   1.262       .  A
C962        O970   1.259       .  A
C962       C1226   1.468       .  S
O963        C971   1.261       .  A
C965        O972   1.259       .  A
C965       C1216   1.434       .  S
C967        O969   1.261       .  A
C967        O973   1.260       .  A
C967       C1230   1.474       .  S
C971       C1213   1.436       .  S
In974       O977   2.240       .  S
In974       O985   2.240       .  S
In974       O982   2.249       .  S
In974       O986   2.240       .  S
C975        O981   1.259       .  A
C975        O983   1.260       .  A
C975       C1246   1.477       .  S
O976        C984   1.257   1_556  A
C978        O985   1.257       .  A
C978       C1215   1.428   1_455  S
C980        O982   1.261       .  A
C980        O986   1.259       .  A
C980       C1242   1.470       .  S
C984       C1212   1.435       .  S
C987        C988   1.535       .  S
C987        C993   1.528       .  S
C987        C991   1.556       .  S
C987       C1238   1.522   1_565  S
C988        H995   1.084       .  S
C988        C989   1.368       .  D
C989        C990   1.543       .  S
C989       C1207   1.496       .  S
C990        C994   1.542       .  S
C990        C992   1.544       .  S
C990        H996   1.111       .  S
C991        H997   1.084       .  S
C991        C992   1.388       .  D
C992       C1199   1.504       .  S
C993        H998   1.088       .  S
C993        C994   1.355       .  D
C994       C1204   1.484       .  S
C999       C1000   1.533       .  S
C999       C1005   1.525       .  S
C999       C1003   1.537       .  S
C999       C1222   1.516   1_565  S
C1000      H1007   1.083       .  S
C1000      C1001   1.373       .  D
C1001      C1002   1.547       .  S
C1001      C1196   1.499       .  S
C1002      C1006   1.548       .  S
C1002      C1004   1.556       .  S
C1002      H1008   1.107       .  S
C1003      H1009   1.084       .  S
C1003      C1004   1.371       .  D
C1004      C1187   1.495       .  S
C1005      H1010   1.088       .  S
C1005      C1006   1.359       .  D
C1006      C1191   1.487       .  S
In1011     O1014   2.253       .  S
In1011     O1022   2.259       .  S
In1011     O1019   2.281       .  S
In1011     O1023   2.239       .  S
C1012      O1018   1.262       .  A
C1012      O1020   1.258       .  A
C1012      C1192   1.487       .  S
O1013      C1021   1.259       .  A
C1015      O1022   1.259       .  A
C1015      C1186   1.442       .  S
C1017      O1019   1.261       .  A
C1017      O1023   1.258       .  A
C1017      C1195   1.478       .  S
C1021      C1214   1.431       .  S
In1024     O1026   2.232       .  S
In1024     O1029   2.265       .  S
In1024     O1031   2.262       .  S
In1024     O1033   2.260       .  S
C1025      O1031   1.262       .  A
C1025      O1033   1.257       .  A
C1025      C1203   1.482       .  S
O1026      C1034   1.259       .  A
C1028      O1035   1.257   1_554  A
C1028      C1185   1.448   1_455  S
C1030      O1032   1.260       .  A
C1030      O1036   1.260       .  A
C1030      C1208   1.479       .  S
C1034      C1211   1.426       .  S
C1037      C1038   1.536       .  S
C1037      C1043   1.534       .  S
C1037      C1041   1.553       .  S
C1037      C1173   1.519       .  S
C1038      H1045   1.086       .  S
C1038      C1039   1.364       .  D
C1039      C1040   1.531       .  S
C1039      C1178   1.483       .  S
C1040      C1044   1.534       .  S
C1040      C1042   1.533       .  S
C1040      H1046   1.112       .  S
C1041      H1047   1.084       .  S
C1041      C1042   1.384       .  D
C1042      C1234   1.488       .  S
C1043      H1048   1.084       .  S
C1043      C1044   1.365       .  D
C1044      C1181   1.488       .  S
C1049      C1050   1.529       .  S
C1049      C1055   1.534       .  S
C1049      C1053   1.537       .  S
C1049      C1161   1.507       .  S
C1050      H1057   1.086       .  S
C1050      C1051   1.361       .  D
C1051      C1052   1.534       .  S
C1051      C1169   1.479       .  S
C1052      C1056   1.543       .  S
C1052      C1054   1.536       .  S
C1052      H1058   1.110       .  S
C1053      H1059   1.084       .  S
C1053      C1054   1.375       .  D
C1054      C1218   1.483       .  S
C1055      H1060   1.087       .  S
C1055      C1056   1.364       .  D
C1056      C1166   1.480       .  S
In1061     O1063   2.244       .  S
In1061     O1066   2.242       .  S
In1061     O1068   2.247       .  S
In1061     O1070   2.250       .  S
C1062      O1068   1.260       .  A
C1062      O1070   1.257       .  A
C1062      C1165   1.471       .  S
O1063      C1071   1.259       .  A
C1065      O1072   1.257   1_554  A
C1065      C1160   1.433       .  S
C1067      O1069   1.261       .  A
C1067      O1073   1.258       .  A
C1067      C1170   1.464       .  S
C1071      C1158   1.436       .  S
In1074     O1077   2.250       .  S
In1074     O1085   2.247       .  S
In1074     O1082   2.249       .  S
In1074     O1086   2.247       .  S
C1075      O1081   1.258       .  A
C1075      O1083   1.259       .  A
C1075      C1182   1.473       .  S
O1076      C1084   1.259       .  A
C1078      O1085   1.257       .  A
C1078      C1159   1.436       .  S
C1080      O1082   1.261       .  A
C1080      O1086   1.258       .  A
C1080      C1177   1.472       .  S
C1084      C1156   1.432       .  S
C1087      C1088   1.532       .  S
C1087      C1093   1.538       .  S
C1087      C1091   1.547       .  S
C1087      C1174   1.535       .  S
C1088      H1095   1.087       .  S
C1088      C1089   1.360       .  D
C1089      C1090   1.548       .  S
C1089      C1147   1.490       .  S
C1090      C1094   1.542       .  S
C1090      C1092   1.547       .  S
C1090      H1096   1.109       .  S
C1091      H1097   1.083       .  S
C1091      C1092   1.385       .  D
C1092      C1200   1.508       .  S
C1093      H1098   1.085       .  S
C1093      C1094   1.367       .  D
C1094      C1151   1.495       .  S
C1099      C1100   1.530       .  S
C1099      C1105   1.541       .  S
C1099      C1103   1.530       .  S
C1099      C1162   1.523       .  S
C1100      H1107   1.086       .  S
C1100      C1101   1.367       .  D
C1101      C1102   1.546       .  S
C1101      C1143   1.492       .  S
C1102      C1106   1.545       .  S
C1102      C1104   1.555       .  S
C1102      H1108   1.108       .  S
C1103      H1109   1.086       .  S
C1103      C1104   1.369       .  D
C1104      C1188   1.494       .  S
C1105      H1110   1.078       .  S
C1105      C1106   1.364       .  D
C1106      C1140   1.494       .  S
In1111     O1113   2.235       .  S
In1111     O1116   2.261       .  S
In1111     O1118   2.244       .  S
In1111     O1120   2.268       .  S
C1112      O1118   1.261       .  A
C1112      O1120   1.260       .  A
C1112      C1139   1.477       .  S
O1113      C1121   1.258   1_556  A
C1115      O1122   1.256       .  A
C1115      C1138   1.447       .  S
C1117      O1119   1.262       .  A
C1117      O1123   1.260       .  A
C1117      C1144   1.477       .  S
C1121      C1157   1.428       .  S
In1124     O1126   2.245       .  S
In1124     O1129   2.267       .  S
In1124     O1131   2.279       .  S
In1124     O1133   2.262       .  S
C1125      O1131   1.259       .  A
C1125      O1133   1.258       .  A
C1125      C1152   1.482       .  S
O1126      C1134   1.259       .  A
C1128      O1135   1.261       .  A
C1128      C1137   1.442       .  S
C1130      O1132   1.258       .  A
C1130      O1136   1.262       .  A
C1130      C1148   1.483       .  S
C1134      C1155   1.435       .  S
C1139      H1141   1.086       .  S
C1139      C1140   1.352       .  D
C1140      H1142   1.086       .  S
C1143      H1145   1.086       .  S
C1143      C1144   1.349       .  D
C1144      H1146   1.085       .  S
C1147      H1149   1.087       .  S
C1147      C1148   1.343       .  D
C1148      H1150   1.084       .  S
C1151      H1153   1.086       .  S
C1151      C1152   1.350       .  D
C1152      H1154   1.084       .  S
C1161      H1163   1.076       .  S
C1161      C1162   1.344       .  D
C1162      H1164   1.087       .  S
C1165      H1167   1.085       .  S
C1165      C1166   1.342       .  D
C1166      H1168   1.087       .  S
C1169      H1171   1.086       .  S
C1169      C1170   1.342       .  D
C1170      H1172   1.085       .  S
C1173      H1175   1.089       .  S
C1173      C1174   1.353       .  D
C1174      H1176   1.085       .  S
C1177      H1179   1.086       .  S
C1177      C1178   1.343       .  D
C1178      H1180   1.087       .  S
C1181      H1183   1.086       .  S
C1181      C1182   1.346       .  D
C1182      H1184   1.083       .  S
C1187      H1189   1.084       .  S
C1187      C1188   1.345       .  D
C1188      H1190   1.084       .  S
C1191      H1193   1.088       .  S
C1191      C1192   1.342       .  D
C1192      H1194   1.086       .  S
C1195      H1197   1.081       .  S
C1195      C1196   1.350       .  D
C1196      H1198   1.085       .  S
C1199      H1201   1.083       .  S
C1199      C1200   1.349       .  D
C1200      H1202   1.084       .  S
C1203      H1205   1.086       .  S
C1203      C1204   1.340       .  D
C1204      H1206   1.088       .  S
C1207      H1209   1.086       .  S
C1207      C1208   1.350       .  D
C1208      H1210   1.083       .  S
C1217      H1219   1.083       .  S
C1217      C1218   1.342       .  D
C1218      H1220   1.083       .  S
C1221      H1223   1.083       .  S
C1222      H1224   1.088       .  S
C1225      H1227   1.086       .  S
C1225      C1226   1.342       .  D
C1226      H1228   1.086       .  S
C1229      H1231   1.087       .  S
C1229      C1230   1.344       .  D
C1230      H1232   1.085       .  S
C1233      H1235   1.085       .  S
C1233      C1234   1.340       .  D
C1234      H1236   1.085       .  S
C1237      H1239   1.086       .  S
C1238      H1240   1.089       .  S
C1241      H1243   1.086       .  S
C1241      C1242   1.344       .  D
C1242      H1244   1.085       .  S
C1245      H1247   1.087       .  S
C1245      C1246   1.343       .  D
C1246      H1248   1.086       .  S
